data/inputs/nesta_case1460wp_eir.m
%%%%%%%%%%%%%%%%%%%%%%%%%%%%%%%%%%%%%%%%%%%%%%%%%%%%%%%%%%%%%%%%%%%%%%%%%%%
%%%%                                                                  %%%%%
%%%%      NICTA Energy System Test Case Archive (NESTA) - v0.7.0      %%%%%
%%%%              Optimal Power Flow - Typical Operation              %%%%%
%%%%                         05 - June - 2017                         %%%%%
%%%%                                                                  %%%%%
%%%%%%%%%%%%%%%%%%%%%%%%%%%%%%%%%%%%%%%%%%%%%%%%%%%%%%%%%%%%%%%%%%%%%%%%%%%
%
%  EIRGrid - Winter Peak 2013-14
%
%  Based on data from:
%    "Ten Year Transmission Forecast Statement 2013"
%    http://www.eirgrid.com/transmission/transmissionforecaststatement/
%    Accessed: 25/8/2014
%  
%  WARNING: This is a preliminary translation from a PSS/E-30 file.
%    The network produces AC Power Flow solutions, but has not been 
%    validated to PSS/E.  See the end of this file for detailed 
%    translation notes.
%
function mpc = nesta_case1460wp_eir
mpc.version = '2';
mpc.baseMVA = 100.0;

%% bus data
%	bus_i	type	Pd	Qd	Gs	Bs	area	Vm	Va	baseKV	zone	Vmax	Vmin
mpc.bus = [
	10	 1	 70.14	 11.64	 0.0	 0.0	 2	    1.08763	  -13.10596	 38.0	 1	    1.15000	    0.85000;
	11	 1	 43.49	 8.64	 0.0	 0.0	 2	    1.09555	  -11.21905	 38.0	 1	    1.15000	    0.85000;
	12	 1	 57.24	 18.82	 0.0	 0.0	 1	    1.07125	  -13.76196	 38.0	 1	    1.15000	    0.85000;
	13	 1	 67.28	 22.11	 0.0	 0.0	 1	    1.08952	  -14.32528	 38.0	 1	    1.15000	    0.85000;
	14	 1	 49.56	 16.29	 0.0	 0.0	 2	    1.07133	  -12.14379	 38.0	 1	    1.15000	    0.85000;
	15	 1	 64.71	 21.26	 0.0	 0.0	 2	    1.08077	  -12.51273	 38.0	 1	    1.15000	    0.85000;
	1021	 1	 0.0	 0.0	 0.0	 0.0	 4	    1.05275	   -4.50832	 110.0	 1	    1.15000	    0.85000;
	1041	 1	 0.75	 0.43	 0.0	 0.0	 3	    1.09478	    2.49091	 110.0	 1	    1.15000	    0.85000;
	1042	 1	 0.0	 0.0	 0.0	 0.0	 3	    1.09844	    4.26337	 220.0	 1	    1.15000	    0.85000;
	1052	 1	 0.0	 0.0	 0.0	 0.0	 3	    1.09818	    4.31682	 220.0	 1	    1.15000	    0.85000;
	1061	 1	 0.0	 0.0	 0.0	 0.0	 9	    0.99836	   -6.32781	 110.0	 1	    1.15000	    0.85000;
	1062	 1	 0.0	 0.0	 0.0	 0.0	 3	    1.09844	    4.26337	 220.0	 1	    1.15000	    0.85000;
	1071	 1	 0.0	 0.0	 0.0	 0.0	 4	    1.03549	   -5.81759	 110.0	 1	    1.15000	    0.85000;
	1072	 1	 0.0	 0.0	 0.0	 0.0	 3	    1.09837	    4.24750	 220.0	 1	    1.15000	    0.85000;
	1081	 1	 0.0	 0.0	 0.0	 0.0	 7	    1.05720	   -3.74434	 110.0	 1	    1.15000	    0.85000;
	1101	 1	 16.62	 4.98	 0.0	 0.0	 5	    1.07710	   -5.05795	 110.0	 1	    1.15000	    0.85000;
	1121	 1	 0.0	 0.0	 0.0	 0.0	 6	    1.08521	   -5.67814	 110.0	 1	    1.15000	    0.85000;
	1122	 1	 0.0	 0.0	 0.0	 0.0	 6	    1.08418	   -4.86082	 220.0	 1	    1.15000	    0.85000;
	1131	 1	 0.0	 0.0	 0.0	 0.0	 7	    1.06694	   -1.31404	 110.0	 1	    1.15000	    0.85000;
	1141	 1	 0.0	 0.0	 0.0	 0.0	 9	    1.01694	   -8.59236	 110.0	 1	    1.15000	    0.85000;
	1151	 1	 0.0	 0.0	 0.0	 0.0	 7	    1.06694	   -1.31404	 110.0	 1	    1.15000	    0.85000;
	1161	 1	 0.0	 0.0	 0.0	 0.0	 7	    1.06303	   -2.35746	 110.0	 1	    1.15000	    0.85000;
	1181	 1	 0.0	 0.0	 0.0	 0.0	 10	    1.00697	   -8.62001	 110.0	 1	    1.15000	    0.85000;
	1201	 1	 0.0	 0.0	 0.0	 0.0	 1	    1.08585	   -8.26958	 110.0	 1	    1.15000	    0.85000;
	1221	 1	 0.0	 0.0	 0.0	 0.0	 8	    1.06204	   -6.88907	 110.0	 1	    1.15000	    0.85000;
	1231	 1	 0.0	 0.0	 0.0	 0.0	 6	    1.09822	   -3.45520	 110.0	 1	    1.15000	    0.85000;
	1251	 1	 0.0	 0.0	 0.0	 0.0	 4	    1.03042	   -5.74307	 110.0	 1	    1.15000	    0.85000;
	1271	 1	 0.0	 0.0	 0.0	 0.0	 10	    1.04583	   -9.14622	 110.0	 1	    1.15000	    0.85000;
	1281	 1	 0.0	 0.0	 0.0	 0.0	 3	    1.07438	    0.75975	 110.0	 1	    1.15000	    0.85000;
	1301	 1	 0.0	 0.0	 0.0	 0.0	 6	    1.07812	   -6.92167	 110.0	 1	    1.15000	    0.85000;
	1321	 1	 0.0	 0.0	 0.0	 0.0	 8	    1.05422	   -9.02773	 110.0	 1	    1.15000	    0.85000;
	1341	 1	 0.0	 0.0	 0.0	 0.0	 9	    0.95473	   -7.36343	 110.0	 1	    1.15000	    0.85000;
	1351	 1	 0.0	 0.0	 0.0	 0.0	 8	    1.05685	   -9.19438	 110.0	 1	    1.15000	    0.85000;
	1361	 1	 0.0	 0.0	 0.0	 0.0	 5	    1.07721	   -4.33471	 110.0	 1	    1.15000	    0.85000;
	1381	 1	 0.0	 0.0	 0.0	 0.0	 3	    1.09077	    1.96041	 110.0	 1	    1.15000	    0.85000;
	1391	 1	 0.0	 0.0	 0.0	 0.0	 3	    1.08674	    1.80151	 110.0	 1	    1.15000	    0.85000;
	1401	 1	 0.0	 0.0	 0.0	 0.0	 9	    0.99733	   -9.03129	 110.0	 1	    1.15000	    0.85000;
	1421	 1	 0.0	 0.0	 0.0	 0.0	 1	    1.06848	   -8.25556	 110.0	 1	    1.15000	    0.85000;
	1441	 1	 0.0	 0.0	 0.0	 0.0	 3	    1.07582	    0.33373	 110.0	 1	    1.15000	    0.85000;
	1451	 1	 0.0	 0.0	 0.0	 0.0	 1	    1.06687	   -8.43866	 110.0	 1	    1.15000	    0.85000;
	1461	 1	 0.0	 0.0	 0.0	 0.0	 5	    1.07904	   -0.99786	 110.0	 1	    1.15000	    0.85000;
	1481	 1	 0.0	 0.0	 0.0	 0.0	 5	    1.09030	   -2.67414	 110.0	 1	    1.15000	    0.85000;
	1501	 1	 0.0	 0.0	 0.0	 0.0	 3	    1.07563	    0.32189	 110.0	 1	    1.15000	    0.85000;
	1541	 1	 0.0	 0.0	 0.0	 0.0	 6	    1.08658	   -4.99454	 110.0	 1	    1.15000	    0.85000;
	1551	 1	 0.0	 0.0	 0.0	 0.0	 3	    1.08135	    1.19174	 110.0	 1	    1.15000	    0.85000;
	1581	 1	 0.0	 0.0	 0.0	 0.0	 1	    1.08509	   -8.32425	 110.0	 1	    1.15000	    0.85000;
	1601	 1	 0.0	 0.0	 0.0	 0.0	 3	    1.07816	    1.16272	 110.0	 1	    1.15000	    0.85000;
	1602	 1	 0.0	 0.0	 0.0	 0.0	 3	    1.08006	    1.19223	 220.0	 1	    1.15000	    0.85000;
	1611	 1	 0.0	 0.0	 0.0	 0.0	 7	    1.08165	    2.00363	 110.0	 1	    1.15000	    0.85000;
	1621	 1	 0.0	 0.0	 0.0	 0.0	 3	    1.07603	    0.64942	 110.0	 1	    1.15000	    0.85000;
	1631	 1	 0.0	 0.0	 0.0	 0.0	 9	    0.99883	   -5.89536	 110.0	 1	    1.15000	    0.85000;
	1641	 1	 0.0	 0.0	 0.0	 0.0	 9	    1.02483	   -5.30038	 110.0	 1	    1.15000	    0.85000;
	1642	 1	 0.0	 0.0	 0.0	 0.0	 9	    1.02544	   -3.53659	 220.0	 1	    1.15000	    0.85000;
	1651	 1	 0.0	 0.0	 0.0	 0.0	 7	    1.07362	   -1.04591	 110.0	 1	    1.15000	    0.85000;
	1661	 1	 0.0	 0.0	 0.0	 0.0	 9	    1.00029	   -9.53922	 110.0	 1	    1.15000	    0.85000;
	1681	 1	 0.0	 0.0	 0.0	 0.0	 3	    1.07641	    0.99516	 110.0	 1	    1.15000	    0.85000;
	1691	 1	 0.0	 0.0	 0.0	 0.0	 1	    1.07154	   -8.06142	 110.0	 1	    1.15000	    0.85000;
	1701	 1	 0.0	 0.0	 0.0	 0.0	 9	    0.97822	   -6.97412	 110.0	 1	    1.15000	    0.85000;
	1711	 1	 0.0	 0.0	 0.0	 0.0	 1	    1.08391	   -9.09027	 110.0	 1	    1.15000	    0.85000;
	1721	 1	 0.0	 0.0	 0.0	 0.0	 5	    1.08038	   -4.83492	 110.0	 1	    1.15000	    0.85000;
	1731	 1	 0.0	 0.0	 0.0	 0.0	 1	    1.08391	   -9.09027	 110.0	 1	    1.15000	    0.85000;
	1741	 1	 0.0	 0.0	 0.0	 0.0	 2	    1.07163	   -8.02132	 110.0	 1	    1.15000	    0.85000;
	1742	 1	 0.0	 0.0	 0.0	 0.0	 2	    1.07751	   -6.57793	 220.0	 1	    1.15000	    0.85000;
	1761	 1	 0.0	 0.0	 0.0	 0.0	 9	    0.97972	   -6.76152	 110.0	 1	    1.15000	    0.85000;
	1781	 1	 0.0	 0.0	 0.0	 0.0	 7	    1.06263	   -2.37784	 110.0	 1	    1.15000	    0.85000;
	1801	 1	 0.0	 0.0	 0.0	 0.0	 1	    1.07175	   -8.09732	 110.0	 1	    1.15000	    0.85000;
	1821	 1	 0.0	 0.0	 0.0	 0.0	 9	    1.01155	   -7.26829	 110.0	 1	    1.15000	    0.85000;
	1841	 1	 0.0	 0.0	 0.0	 0.0	 6	    1.09405	   -3.88464	 110.0	 1	    1.15000	    0.85000;
	1861	 1	 0.0	 0.0	 0.0	 0.0	 9	    1.00234	   -7.34191	 110.0	 1	    1.15000	    0.85000;
	1871	 1	 0.0	 0.0	 0.0	 0.0	 2	    1.06916	   -8.25666	 110.0	 1	    1.15000	    0.85000;
	1881	 1	 0.0	 0.0	 0.0	 0.0	 3	    1.06023	   -2.44125	 110.0	 1	    1.15000	    0.85000;
	1901	 1	 0.0	 0.0	 0.0	 0.0	 6	    1.08396	   -5.27027	 110.0	 1	    1.15000	    0.85000;
	1911	 1	 0.0	 0.0	 0.0	 0.0	 9	    1.01698	   -8.59340	 110.0	 1	    1.15000	    0.85000;
	1921	 1	 0.0	 0.0	 0.0	 0.0	 3	    1.08889	    1.79236	 110.0	 1	    1.15000	    0.85000;
	1931	 1	 0.0	 0.0	 0.0	 0.0	 9	    0.99462	   -7.41724	 110.0	 1	    1.15000	    0.85000;
	1941	 1	 0.0	 0.0	 0.0	 0.0	 8	    1.07957	   -6.28154	 110.0	 1	    1.15000	    0.85000;
	1951	 1	 0.0	 0.0	 0.0	 0.0	 9	    0.98862	  -10.48070	 110.0	 1	    1.15000	    0.85000;
	1961	 1	 0.0	 0.0	 0.0	 0.0	 3	    1.08497	    1.29296	 110.0	 1	    1.15000	    0.85000;
	1971	 1	 0.0	 0.0	 0.0	 0.0	 7	    1.08388	    2.85595	 110.0	 1	    1.15000	    0.85000;
	1981	 1	 0.0	 0.0	 0.0	 0.0	 9	    0.98437	   -8.34707	 110.0	 1	    1.15000	    0.85000;
	1991	 1	 0.0	 0.0	 0.0	 0.0	 6	    1.09563	   -3.31124	 110.0	 1	    1.15000	    0.85000;
	2001	 1	 0.0	 0.0	 0.0	 0.0	 5	    1.09312	   -2.19746	 110.0	 1	    1.15000	    0.85000;
	2002	 1	 0.0	 0.0	 0.0	 0.0	 5	    1.09712	   -0.35207	 220.0	 1	    1.15000	    0.85000;
	2021	 1	 0.0	 0.0	 0.0	 0.0	 1	    1.05719	  -10.37944	 110.0	 1	    1.15000	    0.85000;
	2041	 1	 0.0	 0.0	 0.0	 0.0	 2	    1.06966	   -8.17654	 110.0	 1	    1.15000	    0.85000;
	2042	 1	 0.0	 0.0	 0.0	 0.0	 2	    1.08910	   -6.29801	 220.0	 1	    1.15000	    0.85000;
	2052	 1	 0.0	 0.0	 0.0	 0.0	 2	    1.08906	   -6.30760	 220.0	 1	    1.15000	    0.85000;
	2081	 4	 0.0	 0.0	 0.0	 0.0	 3	    1.00000	    0.00000	 110.0	 1	    1.15000	    0.85000;
	2101	 1	 0.0	 0.0	 0.0	 0.0	 10	    1.00380	   -8.56857	 110.0	 1	    1.15000	    0.85000;
	2121	 1	 0.0	 0.0	 0.0	 0.0	 4	    1.03965	   -5.82693	 110.0	 1	    1.15000	    0.85000;
	2131	 1	 0.0	 0.0	 0.0	 0.0	 3	    1.06606	   -1.29171	 110.0	 1	    1.15000	    0.85000;
	2141	 1	 0.0	 0.0	 0.0	 0.0	 5	    1.07887	   -2.16320	 110.0	 1	    1.15000	    0.85000;
	2161	 1	 0.0	 0.0	 0.0	 0.0	 5	    1.07790	   -5.00892	 110.0	 1	    1.15000	    0.85000;
	2181	 1	 0.0	 0.0	 0.0	 0.0	 10	    1.02066	   -9.82364	 110.0	 1	    1.15000	    0.85000;
	2202	 1	 0.0	 0.0	 0.0	 0.0	 2	    1.08451	   -5.39878	 220.0	 1	    1.15000	    0.85000;
	2204	 1	 0.0	 0.0	 0.0	 0.0	 2	    1.07084	   -4.54299	 380.0	 1	    1.15000	    0.85000;
	2221	 1	 0.0	 0.0	 0.0	 0.0	 3	    1.07353	    0.34782	 110.0	 1	    1.15000	    0.85000;
	2231	 1	 0.0	 0.0	 0.0	 0.0	 4	    1.03668	   -5.66159	 110.0	 1	    1.15000	    0.85000;
	2241	 1	 0.0	 0.0	 0.0	 0.0	 5	    1.02834	   -7.07597	 110.0	 1	    1.15000	    0.85000;
	2251	 1	 0.0	 0.0	 0.0	 0.0	 1	    1.08459	   -9.05659	 110.0	 1	    1.15000	    0.85000;
	2261	 1	 0.0	 0.0	 0.0	 0.0	 8	    1.06087	   -8.59924	 110.0	 1	    1.15000	    0.85000;
	2281	 1	 0.0	 0.0	 0.0	 0.0	 9	    0.99693	   -8.77753	 110.0	 1	    1.15000	    0.85000;
	2301	 1	 0.0	 0.0	 0.0	 0.0	 8	    1.06109	   -8.81673	 110.0	 1	    1.15000	    0.85000;
	2321	 1	 0.0	 0.0	 0.0	 0.0	 9	    0.94723	   -7.01303	 110.0	 1	    1.15000	    0.85000;
	2361	 1	 0.0	 0.0	 0.0	 0.0	 4	    1.02973	   -6.05127	 110.0	 1	    1.15000	    0.85000;
	2401	 1	 0.0	 0.0	 0.0	 0.0	 8	    1.07387	   -7.22077	 110.0	 1	    1.15000	    0.85000;
	2481	 1	 0.0	 0.0	 0.0	 0.0	 2	    1.06549	   -8.30908	 110.0	 1	    1.15000	    0.85000;
	2491	 1	 0.0	 0.0	 0.0	 0.0	 2	    1.06531	   -8.30633	 110.0	 1	    1.15000	    0.85000;
	2521	 1	 0.0	 0.0	 0.0	 0.0	 9	    1.00353	   -7.28934	 110.0	 1	    1.15000	    0.85000;
	2522	 1	 0.0	 0.0	 0.0	 0.0	 9	    1.00856	   -6.27786	 220.0	 1	    1.15000	    0.85000;
	2541	 1	 0.0	 0.0	 0.0	 0.0	 1	    1.07559	   -9.56976	 110.0	 1	    1.15000	    0.85000;
	2551	 1	 0.0	 0.0	 0.0	 0.0	 1	    1.07377	   -8.71797	 110.0	 1	    1.15000	    0.85000;
	2561	 1	 0.0	 0.0	 0.0	 0.0	 2	    1.08744	   -8.10431	 110.0	 1	    1.15000	    0.85000;
	2562	 1	 0.0	 0.0	 0.0	 0.0	 2	    1.09161	   -6.44067	 220.0	 1	    1.15000	    0.85000;
	2563	 1	 0.0	 0.0	 0.0	 0.0	 2	    1.09156	   -6.44915	 220.0	 1	    1.15000	    0.85000;
	2571	 1	 0.0	 0.0	 0.0	 0.0	 2	    1.08542	   -8.86166	 110.0	 1	    1.15000	    0.85000;
	2581	 1	 0.0	 0.0	 0.0	 0.0	 2	    1.06835	   -8.34167	 110.0	 1	    1.15000	    0.85000;
	2671	 1	 0.0	 0.0	 0.0	 0.0	 9	    0.99843	   -5.41143	 110.0	 1	    1.15000	    0.85000;
	2681	 1	 0.0	 0.0	 0.0	 0.0	 9	    1.00516	   -7.59391	 110.0	 1	    1.15000	    0.85000;
	2701	 1	 0.0	 0.0	 0.0	 0.0	 1	    1.06396	  -10.05186	 110.0	 1	    1.15000	    0.85000;
	2721	 1	 0.0	 0.0	 0.0	 0.0	 2	    1.06342	   -8.33187	 110.0	 1	    1.15000	    0.85000;
	2731	 1	 0.0	 0.0	 0.0	 0.0	 7	    1.08391	    2.85558	 110.0	 1	    1.15000	    0.85000;
	2741	 1	 0.0	 0.0	 0.0	 0.0	 6	    1.09761	   -2.26788	 110.0	 1	    1.15000	    0.85000;
	2742	 1	 0.0	 0.0	 0.0	 0.0	 6	    1.10204	   -0.06764	 220.0	 1	    1.15000	    0.85000;
	2761	 1	 0.0	 0.0	 0.0	 0.0	 1	    1.08339	   -9.12063	 110.0	 1	    1.15000	    0.85000;
	2771	 1	 0.0	 0.0	 0.0	 0.0	 7	    1.08203	    2.03325	 110.0	 1	    1.15000	    0.85000;
	2780	 1	 0.0	 0.0	 0.0	 0.0	 9	    1.01336	   -5.97486	 110.0	 1	    1.15000	    0.85000;
	2781	 1	 0.0	 0.0	 0.0	 0.0	 9	    1.01336	   -5.97486	 110.0	 1	    1.15000	    0.85000;
	2801	 1	 0.0	 0.0	 0.0	 0.0	 9	    0.96064	   -6.70083	 110.0	 1	    1.15000	    0.85000;
	2821	 1	 0.0	 0.0	 0.0	 0.0	 9	    0.98912	   -8.91120	 110.0	 1	    1.15000	    0.85000;
	2841	 1	 0.0	 0.0	 0.0	 0.0	 10	    1.01644	   -9.28040	 110.0	 1	    1.15000	    0.85000;
	2842	 1	 0.0	 0.0	 0.0	 0.0	 10	    1.02881	   -7.37259	 220.0	 1	    1.15000	    0.85000;
	2852	 1	 0.0	 0.0	 0.0	 0.0	 3	    1.09874	    4.44235	 220.0	 1	    1.15000	    0.85000;
	2861	 1	 0.0	 0.0	 0.0	 0.0	 1	    1.05928	  -10.13786	 110.0	 1	    1.15000	    0.85000;
	2881	 1	 0.0	 0.0	 0.0	 0.0	 3	    1.07261	   -1.77855	 110.0	 1	    1.15000	    0.85000;
	2941	 1	 0.0	 0.0	 0.0	 0.0	 1	    1.07588	   -9.55376	 110.0	 1	    1.15000	    0.85000;
	2951	 1	 0.0	 0.0	 0.0	 0.0	 1	    1.07402	   -8.70089	 110.0	 1	    1.15000	    0.85000;
	2962	 1	 0.0	 0.0	 0.0	 0.0	 2	    1.09264	   -6.34529	 220.0	 1	    1.15000	    0.85000;
	2972	 1	 0.0	 0.0	 0.0	 0.0	 2	    1.09096	   -5.95826	 220.0	 1	    1.15000	    0.85000;
	3061	 1	 0.0	 0.0	 0.0	 0.0	 3	    1.07630	    0.71241	 110.0	 1	    1.15000	    0.85000;
	3081	 1	 0.0	 0.0	 0.0	 0.0	 2	    1.07444	   -8.65891	 110.0	 1	    1.15000	    0.85000;
	3082	 1	 0.0	 0.0	 0.0	 0.0	 2	    1.07968	   -7.62742	 220.0	 1	    1.15000	    0.85000;
	3091	 1	 0.0	 0.0	 0.0	 0.0	 2	    1.06385	   -9.95360	 110.0	 1	    1.15000	    0.85000;
	3101	 1	 0.0	 0.0	 0.0	 0.0	 5	    1.04613	   -7.08457	 110.0	 1	    1.15000	    0.85000;
	3122	 1	 0.0	 0.0	 0.0	 0.0	 2	    1.08226	   -6.57769	 220.0	 1	    1.15000	    0.85000;
	3200	 1	 0.0	 0.0	 0.0	 0.0	 3	    1.08674	    1.30063	 110.0	 1	    1.15000	    0.85000;
	3201	 1	 0.0	 0.0	 0.0	 0.0	 3	    1.08673	    1.29741	 110.0	 1	    1.15000	    0.85000;
	3202	 1	 0.0	 0.0	 0.0	 0.0	 3	    1.08883	    2.45393	 220.0	 1	    1.15000	    0.85000;
	3203	 1	 0.0	 0.0	 0.0	 0.0	 3	    1.09392	    2.43426	 220.0	 1	    1.15000	    0.85000;
	3209	 1	 0.0	 0.0	 0.0	 0.0	 3	    1.08673	    1.29847	 110.0	 1	    1.15000	    0.85000;
	3221	 1	 0.0	 0.0	 0.0	 0.0	 3	    1.07590	    0.56536	 110.0	 1	    1.15000	    0.85000;
	3241	 1	 0.0	 0.0	 0.0	 0.0	 8	    1.06345	   -9.49704	 110.0	 1	    1.15000	    0.85000;
	3251	 1	 0.0	 0.0	 0.0	 0.0	 7	    1.07159	   -1.42844	 110.0	 1	    1.15000	    0.85000;
	3261	 1	 0.0	 0.0	 0.0	 0.0	 6	    1.07926	   -6.26559	 110.0	 1	    1.15000	    0.85000;
	3281	 1	 0.0	 0.0	 0.0	 0.0	 7	    1.05752	   -3.71096	 110.0	 1	    1.15000	    0.85000;
	3282	 1	 0.0	 0.0	 0.0	 0.0	 7	    1.05386	   -2.73944	 220.0	 1	    1.15000	    0.85000;
	3301	 1	 0.0	 0.0	 0.0	 0.0	 7	    1.07063	    0.00960	 110.0	 1	    1.15000	    0.85000;
	3321	 1	 0.0	 0.0	 0.0	 0.0	 10	    1.00632	   -9.84939	 110.0	 1	    1.15000	    0.85000;
	3341	 1	 0.0	 0.0	 0.0	 0.0	 6	    1.08914	   -5.08989	 110.0	 1	    1.15000	    0.85000;
	3342	 1	 0.0	 0.0	 0.0	 0.0	 6	    1.08144	   -3.89855	 220.0	 1	    1.15000	    0.85000;
	3361	 1	 0.0	 0.0	 0.0	 0.0	 9	    0.93865	   -8.17719	 110.0	 1	    1.15000	    0.85000;
	3381	 1	 0.0	 0.0	 0.0	 0.0	 8	    1.05906	   -8.85670	 110.0	 1	    1.15000	    0.85000;
	3391	 1	 0.0	 0.0	 0.0	 0.0	 3	    1.07341	   -1.79816	 110.0	 1	    1.15000	    0.85000;
	3401	 1	 0.0	 0.0	 0.0	 0.0	 5	    1.09117	   -2.62568	 110.0	 1	    1.15000	    0.85000;
	3421	 1	 0.0	 0.0	 0.0	 0.0	 1	    1.08390	   -9.08988	 110.0	 1	    1.15000	    0.85000;
	3431	 1	 0.0	 0.0	 0.0	 0.0	 1	    1.05901	  -10.15479	 110.0	 1	    1.15000	    0.85000;
	3501	 1	 0.0	 0.0	 0.0	 0.0	 9	    1.00390	   -7.81249	 110.0	 1	    1.15000	    0.85000;
	3521	 1	 0.0	 0.0	 0.0	 0.0	 10	    1.02855	   -7.53322	 110.0	 1	    1.15000	    0.85000;
	3522	 1	 0.0	 0.0	 0.0	 0.0	 10	    1.00870	   -6.18598	 220.0	 1	    1.15000	    0.85000;
	3541	 1	 0.0	 0.0	 0.0	 0.0	 7	    1.05003	   -4.18728	 110.0	 1	    1.15000	    0.85000;
	3561	 1	 0.0	 0.0	 0.0	 0.0	 10	    1.02262	   -9.49506	 110.0	 1	    1.15000	    0.85000;
	3581	 1	 0.0	 0.0	 0.0	 0.0	 9	    0.93864	   -8.17688	 110.0	 1	    1.15000	    0.85000;
	3601	 1	 0.0	 0.0	 0.0	 0.0	 3	    1.07641	    0.67481	 110.0	 1	    1.15000	    0.85000;
	3611	 1	 0.0	 0.0	 0.0	 0.0	 3	    1.07670	    0.68202	 110.0	 1	    1.15000	    0.85000;
	3621	 1	 0.0	 0.0	 0.0	 0.0	 5	    1.05973	   -6.01973	 110.0	 1	    1.15000	    0.85000;
	3641	 1	 0.0	 0.0	 0.0	 0.0	 6	    1.09531	   -3.30484	 110.0	 1	    1.15000	    0.85000;
	3642	 1	 0.0	 0.0	 0.0	 0.0	 6	    1.09312	   -2.91288	 220.0	 1	    1.15000	    0.85000;
	3651	 1	 0.0	 0.0	 0.0	 0.0	 5	    1.09530	   -3.30375	 110.0	 1	    1.15000	    0.85000;
	3751	 1	 0.0	 0.0	 0.0	 0.0	 1	    1.07632	   -9.51596	 110.0	 1	    1.15000	    0.85000;
	3761	 1	 0.0	 0.0	 0.0	 0.0	 1	    1.06742	   -8.38995	 110.0	 1	    1.15000	    0.85000;
	3781	 1	 0.0	 0.0	 0.0	 0.0	 1	    1.08524	   -8.31204	 110.0	 1	    1.15000	    0.85000;
	3801	 1	 0.0	 0.0	 0.0	 0.0	 3	    1.08375	    1.27259	 110.0	 1	    1.15000	    0.85000;
	3821	 1	 0.0	 0.0	 0.0	 0.0	 10	    1.00245	   -8.63810	 110.0	 1	    1.15000	    0.85000;
	3841	 1	 0.0	 0.0	 0.0	 0.0	 2	    1.06575	   -8.19826	 110.0	 1	    1.15000	    0.85000;
	3842	 1	 0.0	 0.0	 0.0	 0.0	 2	    1.07083	   -7.01372	 220.0	 1	    1.15000	    0.85000;
	3851	 1	 0.0	 0.0	 0.0	 0.0	 2	    1.06810	   -8.10584	 110.0	 1	    1.15000	    0.85000;
	3852	 1	 0.0	 0.0	 0.0	 0.0	 2	    1.07611	   -6.86957	 220.0	 1	    1.15000	    0.85000;
	3861	 1	 0.0	 0.0	 0.0	 0.0	 1	    1.07649	   -9.48418	 110.0	 1	    1.15000	    0.85000;
	3871	 1	 0.0	 0.0	 0.0	 0.0	 1	    1.07057	   -8.83759	 110.0	 1	    1.15000	    0.85000;
	3881	 1	 0.0	 0.0	 0.0	 0.0	 3	    1.07637	    0.99683	 110.0	 1	    1.15000	    0.85000;
	3901	 1	 0.0	 0.0	 0.0	 0.0	 7	    1.05059	   -4.00957	 110.0	 1	    1.15000	    0.85000;
	3934	 1	 0.0	 0.0	 0.0	 0.0	 4	    1.08561	   -0.00577	 380.0	 1	    1.15000	    0.85000;
	3941	 1	 0.0	 0.0	 0.0	 0.0	 4	    1.02579	   -5.75384	 110.0	 1	    1.15000	    0.85000;
	3942	 1	 0.0	 0.0	 0.0	 0.0	 4	    1.05389	   -1.06184	 220.0	 1	    1.15000	    0.85000;
	3944	 1	 0.0	 0.0	 0.0	 0.0	 4	    1.08566	   -0.01154	 380.0	 1	    1.15000	    0.85000;
	3954	 1	 0.0	 0.0	 0.0	 0.0	 4	    1.03461	   -0.22561	 380.0	 1	    1.15000	    0.85000;
	3961	 1	 0.0	 0.0	 0.0	 0.0	 3	    1.07679	    0.69457	 110.0	 1	    1.15000	    0.85000;
	3981	 1	 0.0	 0.0	 0.0	 0.0	 7	    1.05037	   -4.02249	 110.0	 1	    1.15000	    0.85000;
	3991	 1	 0.0	 0.0	 0.0	 0.0	 7	    1.05038	   -4.02188	 110.0	 1	    1.15000	    0.85000;
	4001	 1	 0.0	 0.0	 0.0	 0.0	 9	    1.02731	  -10.94612	 110.0	 1	    1.15000	    0.85000;
...
];

%% generator data
%	bus	Pg	Qg	Qmax	Qmin	Vg	mBase	status	Pmax	Pmin	Pc1	Pc2	Qc1min	Qc1max	Qc2min	Qc2max	ramp_agc	ramp_10	ramp_30	ramp_q	apf
mpc.gen = [
	10271	 21.0	 6.626	 15.0	 -7.0	 1.00211	 34.0	 1	 21.0	 5.0	 0.0	 0.0	 0.0	 0.0	 0.0	 0.0	 0.0	 0.0	 0.0	 0.0	 0.0; % COW
	10272	 22.0	 6.999	 15.0	 -7.0	 1.00536	 34.0	 1	 22.0	 5.0	 0.0	 0.0	 0.0	 0.0	 0.0	 0.0	 0.0	 0.0	 0.0	 0.0	 0.0; % NG
	10273	 19.0	 -2.507	 15.0	 -7.0	 1.00262	 34.0	 0	 19.0	 5.0	 0.0	 0.0	 0.0	 0.0	 0.0	 0.0	 0.0	 0.0	 0.0	 0.0	 0.0; % COW
	10274	 24.0	 4.907	 15.0	 -7.0	 0.99622	 34.0	 1	 24.0	 5.0	 0.0	 0.0	 0.0	 0.0	 0.0	 0.0	 0.0	 0.0	 0.0	 0.0	 0.0; % NG
	10275	 0.0	 0.0	 0.0	 0.0	 1.01577	 8.35	 1	 7.5	 0.0	 0.0	 0.0	 0.0	 0.0	 0.0	 0.0	 0.0	 0.0	 0.0	 0.0	 0.0; % NG
	10276	 0.0	 0.0	 0.0	 0.0	 1.01577	 0.85	 1	 0.66	 0.0	 0.0	 0.0	 0.0	 0.0	 0.0	 0.0	 0.0	 0.0	 0.0	 0.0	 0.0; % PEL
	10470	 369.351	 54.372	 270.0	 -170.0	 1.0706	 500.0	 1	 443.0	 222.0	 0.0	 0.0	 0.0	 0.0	 0.0	 0.0	 0.0	 0.0	 0.0	 0.0	 0.0; % NG
	10471	 270.0	 0.0	 159.0	 -75.0	 1.04411	 318.8	 0	 270.0	 40.0	 0.0	 0.0	 0.0	 0.0	 0.0	 0.0	 0.0	 0.0	 0.0	 0.0	 0.0; % NG
	10472	 90.0	 0.0	 60.0	 -30.0	 1.04589	 100.9	 0	 90.0	 13.0	 0.0	 0.0	 0.0	 0.0	 0.0	 0.0	 0.0	 0.0	 0.0	 0.0	 0.0; % NG
	10473	 90.0	 0.0	 60.0	 -30.0	 1.04589	 100.9	 0	 90.0	 13.0	 0.0	 0.0	 0.0	 0.0	 0.0	 0.0	 0.0	 0.0	 0.0	 0.0	 0.0; % NG
	10474	 90.0	 0.0	 60.0	 -30.0	 1.04613	 100.9	 0	 90.0	 13.0	 0.0	 0.0	 0.0	 0.0	 0.0	 0.0	 0.0	 0.0	 0.0	 0.0	 0.0; % NG
	10671	 0.0	 -1.94	 -1.94	 -1.94	 0.97396	 4.8	 1	 4.8	 0.0	 0.0	 0.0	 0.0	 0.0	 0.0	 0.0	 0.0	 0.0	 0.0	 0.0	 0.0; % NG
	10672	 5.0	 -2.0	 -2.0	 -2.0	 0.97817	 6.0	 1	 5.0	 0.0	 0.0	 0.0	 0.0	 0.0	 0.0	 0.0	 0.0	 0.0	 0.0	 0.0	 0.0; % NG
	10673	 0.0	 -0.48	 -0.48	 -0.48	 0.97418	 1.2	 1	 1.2	 0.0	 0.0	 0.0	 0.0	 0.0	 0.0	 0.0	 0.0	 0.0	 0.0	 0.0	 0.0; % NG
	10674	 4.589	 -1.77	 -1.77	 -2.3	 0.97859	 4.6	 1	 4.6	 0.0	 0.0	 0.0	 0.0	 0.0	 0.0	 0.0	 0.0	 0.0	 0.0	 0.0	 0.0; % NG
	11204	 1.0	 0.0	 0.0	 0.0	 1.08736	 1.6	 0	 1.0	 0.0	 0.0	 0.0	 0.0	 0.0	 0.0	 0.0	 0.0	 0.0	 0.0	 0.0	 0.0; % PEL
	11271	 0.0	 0.0	 0.0	 0.0	 1.0234	 28.0	 1	 25.2	 0.0	 0.0	 0.0	 0.0	 0.0	 0.0	 0.0	 0.0	 0.0	 0.0	 0.0	 0.0; % PEL
	11371	 0.0	 -8.932	 20.0	 -20.0	 1.02759	 66.0	 1	 51.0	 0.0	 0.0	 0.0	 0.0	 0.0	 0.0	 0.0	 0.0	 0.0	 0.0	 0.0	 0.0; % PEL
	12371	 31.5	 -1.105	 7.0	 -7.0	 1.10242	 32.0	 1	 31.5	 0.0	 0.0	 0.0	 0.0	 0.0	 0.0	 0.0	 0.0	 0.0	 0.0	 0.0	 0.0; % COW
	12372	 0.0	 0.0	 0.0	 0.0	 1.10361	 10.0	 1	 10.5	 0.0	 0.0	 0.0	 0.0	 0.0	 0.0	 0.0	 0.0	 0.0	 0.0	 0.0	 0.0; % PEL
	12571	 0.0	 0.0	 0.0	 0.0	 1.05233	 25.05	 1	 19.45	 0.0	 0.0	 0.0	 0.0	 0.0	 0.0	 0.0	 0.0	 0.0	 0.0	 0.0	 0.0; % NG
	12572	 0.0	 0.99	 0.99	 -0.99	 1.06757	 3.34	 1	 3.0	 0.0	 0.0	 0.0	 0.0	 0.0	 0.0	 0.0	 0.0	 0.0	 0.0	 0.0	 0.0; % NG
	12573	 9.0	 2.96	 2.96	 -2.96	 1.06883	 10.02	 1	 9.0	 0.0	 0.0	 0.0	 0.0	 0.0	 0.0	 0.0	 0.0	 0.0	 0.0	 0.0	 0.0; % NG
	12872	 0.0	 -2.76	 0.0	 -2.76	 1.01354	 9.2	 1	 8.4	 0.0	 0.0	 0.0	 0.0	 0.0	 0.0	 0.0	 0.0	 0.0	 0.0	 0.0	 0.0; % NG
	12873	 0.0	 0.0	 0.0	 0.0	 1.02974	 20.7	 1	 19.55	 0.0	 0.0	 0.0	 0.0	 0.0	 0.0	 0.0	 0.0	 0.0	 0.0	 0.0	 0.0; % PEL
	12874	 8.5	 0.0	 0.0	 0.0	 1.04219	 8.5	 1	 8.5	 0.0	 0.0	 0.0	 0.0	 0.0	 0.0	 0.0	 0.0	 0.0	 0.0	 0.0	 0.0; % COW
	13434	 0.0	 0.0	 0.0	 0.0	 0.96211	 4.5	 1	 4.3	 0.0	 0.0	 0.0	 0.0	 0.0	 0.0	 0.0	 0.0	 0.0	 0.0	 0.0	 0.0; % PEL
	13471	 0.0	 0.0	 0.0	 0.0	 0.92078	 0.66	 1	 0.66	 0.0	 0.0	 0.0	 0.0	 0.0	 0.0	 0.0	 0.0	 0.0	 0.0	 0.0	 0.0; % PEL
	13472	 0.849	 0.0	 0.0	 -0.84	 0.92509	 2.7	 1	 2.55	 0.0	 0.0	 0.0	 0.0	 0.0	 0.0	 0.0	 0.0	 0.0	 0.0	 0.0	 0.0; % NG
	13473	 0.0	 0.0	 0.0	 0.0	 0.92089	 10.0	 1	 10.0	 0.0	 0.0	 0.0	 0.0	 0.0	 0.0	 0.0	 0.0	 0.0	 0.0	 0.0	 0.0; % NG
	13474	 0.0	 0.0	 0.0	 0.0	 0.92088	 6.25	 1	 6.0	 0.0	 0.0	 0.0	 0.0	 0.0	 0.0	 0.0	 0.0	 0.0	 0.0	 0.0	 0.0; % PEL
	13475	 7.65	 0.0	 0.0	 0.0	 0.90971	 7.65	 1	 7.65	 0.0	 0.0	 0.0	 0.0	 0.0	 0.0	 0.0	 0.0	 0.0	 0.0	 0.0	 0.0; % COW
	13476	 11.9	 0.0	 0.0	 0.0	 0.93219	 11.5	 1	 11.9	 0.0	 0.0	 0.0	 0.0	 0.0	 0.0	 0.0	 0.0	 0.0	 0.0	 0.0	 0.0; % NG
	13477	 0.0	 0.0	 0.0	 0.0	 0.92723	 2.7	 1	 2.55	 0.0	 0.0	 0.0	 0.0	 0.0	 0.0	 0.0	 0.0	 0.0	 0.0	 0.0	 0.0; % PEL
	13479	 0.0	 0.0	 0.0	 0.0	 0.93974	 3.4	 1	 3.4	 0.0	 0.0	 0.0	 0.0	 0.0	 0.0	 0.0	 0.0	 0.0	 0.0	 0.0	 0.0; % PEL
	14073	 6.45	 -2.4	 -2.4	 -2.4	 1.00496	 7.611	 1	 6.45	 0.0	 0.0	 0.0	 0.0	 0.0	 0.0	 0.0	 0.0	 0.0	 0.0	 0.0	 0.0; % COW
	14471	 4.0	 0.0	 0.0	 0.0	 1.06755	 4.0	 1	 4.0	 0.0	 0.0	 0.0	 0.0	 0.0	 0.0	 0.0	 0.0	 0.0	 0.0	 0.0	 0.0; % COW
	14472	 0.85	 0.0	 0.0	 0.0	 1.06889	 0.85	 1	 0.85	 0.0	 0.0	 0.0	 0.0	 0.0	 0.0	 0.0	 0.0	 0.0	 0.0	 0.0	 0.0; % NG
	14604	 4.8	 0.0	 0.0	 0.0	 1.10698	 7.0	 0	 4.8	 0.0	 0.0	 0.0	 0.0	 0.0	 0.0	 0.0	 0.0	 0.0	 0.0	 0.0	 0.0; % NG
	14871	 0.0	 0.0	 0.0	 0.0	 1.03868	 4.6	 1	 1.7	 0.0	 0.0	 0.0	 0.0	 0.0	 0.0	 0.0	 0.0	 0.0	 0.0	 0.0	 0.0; % PEL
	15571	 0.0	 -0.116	 1.96	 -1.96	 1.08823	 5.95	 1	 5.95	 0.0	 0.0	 0.0	 0.0	 0.0	 0.0	 0.0	 0.0	 0.0	 0.0	 0.0	 0.0; % PEL
	15572	 0.0	 -0.187	 5.92	 -5.92	 1.08811	 18.75	 1	 18.0	 0.0	 0.0	 0.0	 0.0	 0.0	 0.0	 0.0	 0.0	 0.0	 0.0	 0.0	 0.0; % PEL
	15573	 0.0	 0.0	 0.0	 0.0	 1.06391	 23.0	 1	 20.0	 0.0	 0.0	 0.0	 0.0	 0.0	 0.0	 0.0	 0.0	 0.0	 0.0	 0.0	 0.0; % PEL
	15771	 0.0	 -0.3	 -0.3	 -0.3	 0.92901	 1.98	 1	 1.98	 0.0	 0.0	 0.0	 0.0	 0.0	 0.0	 0.0	 0.0	 0.0	 0.0	 0.0	 0.0; % PEL
	15772	 3.0	 -1.92	 -1.92	 -1.92	 0.90174	 3.0	 1	 3.0	 0.0	 0.0	 0.0	 0.0	 0.0	 0.0	 0.0	 0.0	 0.0	 0.0	 0.0	 0.0; % NG
	16371	 3.4	 0.0	 0.0	 0.0	 1.02186	 3.4	 1	 3.4	 0.0	 0.0	 0.0	 0.0	 0.0	 0.0	 0.0	 0.0	 0.0	 0.0	 0.0	 0.0; % COW
	16372	 0.0	 0.0	 0.0	 0.0	 1.02106	 3.4	 1	 3.4	 0.0	 0.0	 0.0	 0.0	 0.0	 0.0	 0.0	 0.0	 0.0	 0.0	 0.0	 0.0; % PEL
	16373	 0.0	 0.0	 0.0	 0.0	 1.02106	 6.8	 1	 6.8	 0.0	 0.0	 0.0	 0.0	 0.0	 0.0	 0.0	 0.0	 0.0	 0.0	 0.0	 0.0; % PEL
	16374	 0.0	 0.0	 0.0	 0.0	 0.98427	 7.65	 1	 7.65	 0.0	 0.0	 0.0	 0.0	 0.0	 0.0	 0.0	 0.0	 0.0	 0.0	 0.0	 0.0; % PEL
	16375	 3.96	 0.0	 0.0	 0.0	 0.98441	 4.25	 1	 3.96	 0.0	 0.0	 0.0	 0.0	 0.0	 0.0	 0.0	 0.0	 0.0	 0.0	 0.0	 0.0; % NG
	16376	 4.95	 0.0	 0.0	 0.0	 1.02122	 5.1	 1	 4.95	 0.0	 0.0	 0.0	 0.0	 0.0	 0.0	 0.0	 0.0	 0.0	 0.0	 0.0	 0.0; % NG
	16377	 9.0	 0.0	 0.0	 0.0	 0.9897	 9.2	 1	 9.0	 0.0	 0.0	 0.0	 0.0	 0.0	 0.0	 0.0	 0.0	 0.0	 0.0	 0.0	 0.0; % NG
	16379	 0.0	 0.0	 0.0	 0.0	 1.02106	 0.323	 1	 0.29	 0.0	 0.0	 0.0	 0.0	 0.0	 0.0	 0.0	 0.0	 0.0	 0.0	 0.0	 0.0; % NG
	16571	 37.8	 0.0	 0.0	 0.0	 1.07524	 40.0	 1	 37.8	 0.0	 0.0	 0.0	 0.0	 0.0	 0.0	 0.0	 0.0	 0.0	 0.0	 0.0	 0.0; % NG
	16670	 4.5	 -3.07	 0.0	 -3.07	 0.90029	 4.5	 1	 4.5	 0.0	 0.0	 0.0	 0.0	 0.0	 0.0	 0.0	 0.0	 0.0	 0.0	 0.0	 0.0; % NG
	16671	 3.4	 0.0	 0.0	 0.0	 0.94831	 3.4	 1	 3.4	 0.0	 0.0	 0.0	 0.0	 0.0	 0.0	 0.0	 0.0	 0.0	 0.0	 0.0	 0.0; % NG
	16672	 0.0	 -0.56	 -0.56	 -0.56	 0.93082	 1.7	 1	 1.59	 0.0	 0.0	 0.0	 0.0	 0.0	 0.0	 0.0	 0.0	 0.0	 0.0	 0.0	 0.0; % PEL
	16674	 0.0	 0.0	 0.0	 0.0	 0.98982	 18.7	 1	 18.7	 0.0	 0.0	 0.0	 0.0	 0.0	 0.0	 0.0	 0.0	 0.0	 0.0	 0.0	 0.0; % PEL
	16675	 8.0	 -2.65	 -2.65	 -2.65	 0.94269	 8.0	 1	 8.0	 0.0	 0.0	 0.0	 0.0	 0.0	 0.0	 0.0	 0.0	 0.0	 0.0	 0.0	 0.0; % COW
	16873	 8.0	 -0.622	 7.0	 -1.0	 0.97695	 11.5	 1	 8.0	 2.0	 0.0	 0.0	 0.0	 0.0	 0.0	 0.0	 0.0	 0.0	 0.0	 0.0	 0.0; % NG
	17073	 5.0	 6.334	 23.0	 -25.0	 0.95332	 35.5	 1	 22.5	 5.0	 0.0	 0.0	 0.0	 0.0	 0.0	 0.0	 0.0	 0.0	 0.0	 0.0	 0.0; % PEL
	17074	 22.5	 8.296	 23.0	 -25.0	 0.9584	 35.5	 1	 22.5	 5.0	 0.0	 0.0	 0.0	 0.0	 0.0	 0.0	 0.0	 0.0	 0.0	 0.0	 0.0; % NG
	17075	 0.0	 -0.8	 -0.8	 -0.8	 0.90803	 1.98	 1	 1.98	 0.0	 0.0	 0.0	 0.0	 0.0	 0.0	 0.0	 0.0	 0.0	 0.0	 0.0	 0.0; % PEL
	17077	 0.0	 0.0	 0.0	 0.0	 0.93974	 1.2	 1	 0.02	 0.0	 0.0	 0.0	 0.0	 0.0	 0.0	 0.0	 0.0	 0.0	 0.0	 0.0	 0.0; % NG
	17671	 10.0	 1.618	 7.0	 -3.0	 0.92435	 12.5	 1	 10.0	 3.0	 0.0	 0.0	 0.0	 0.0	 0.0	 0.0	 0.0	 0.0	 0.0	 0.0	 0.0; % NG
	17672	 10.0	 1.625	 7.0	 -3.0	 0.92612	 12.5	 1	 10.0	 3.0	 0.0	 0.0	 0.0	 0.0	 0.0	 0.0	 0.0	 0.0	 0.0	 0.0	 0.0; % NG
	18471	 4.99	 0.0	 0.0	 0.0	 1.02265	 5.2	 1	 4.99	 0.0	 0.0	 0.0	 0.0	 0.0	 0.0	 0.0	 0.0	 0.0	 0.0	 0.0	 0.0; % NG
	18472	 0.0	 -0.003	 0.0	 -0.82	 1.02211	 2.978	 1	 2.5	 0.0	 0.0	 0.0	 0.0	 0.0	 0.0	 0.0	 0.0	 0.0	 0.0	 0.0	 0.0; % PEL
	19081	 0.0	 0.0	 0.0	 0.0	 1.03755	 2.55	 1	 2.55	 0.0	 0.0	 0.0	 0.0	 0.0	 0.0	 0.0	 0.0	 0.0	 0.0	 0.0	 0.0; % PEL
	19082	 0.0	 0.0	 0.0	 0.0	 1.03755	 1.7	 1	 1.7	 0.0	 0.0	 0.0	 0.0	 0.0	 0.0	 0.0	 0.0	 0.0	 0.0	 0.0	 0.0; % PEL
	19083	 0.0	 0.0	 0.0	 0.0	 1.03579	 6.9	 1	 4.99	 0.0	 0.0	 0.0	 0.0	 0.0	 0.0	 0.0	 0.0	 0.0	 0.0	 0.0	 0.0; % NG
	19084	 4.5	 -1.5	 -1.5	 -1.5	 1.0236	 4.6	 1	 4.5	 0.0	 0.0	 0.0	 0.0	 0.0	 0.0	 0.0	 0.0	 0.0	 0.0	 0.0	 0.0; % NG
	19085	 21.0	 -7.0	 -7.0	 -7.0	 1.01216	 23.824	 1	 21.0	 0.0	 0.0	 0.0	 0.0	 0.0	 0.0	 0.0	 0.0	 0.0	 0.0	 0.0	 0.0; % NG
	19101	 98.4	 0.0	 51.0	 -36.17	 0.96855	 108.24	 0	 98.4	 34.0	 0.0	 0.0	 0.0	 0.0	 0.0	 0.0	 0.0	 0.0	 0.0	 0.0	 0.0; % NG
	19317	 0.0	 -3.797	 6.0	 -6.0	 0.93486	 6.0	 1	 0.0	 0.0	 0.0	 0.0	 0.0	 0.0	 0.0	 0.0	 0.0	 0.0	 0.0	 0.0	 0.0; % SYNC
	19371	 0.0	 0.0	 0.0	 0.0	 0.96684	 29.78	 1	 23.75	 0.0	 0.0	 0.0	 0.0	 0.0	 0.0	 0.0	 0.0	 0.0	 0.0	 0.0	 0.0; % COW
	19372	 5.699	 0.0	 0.0	 0.0	 0.96909	 11.05	 1	 11.05	 0.0	 0.0	 0.0	 0.0	 0.0	 0.0	 0.0	 0.0	 0.0	 0.0	 0.0	 0.0; % NG
	19471	 133.5	 45.236	 94.0	 -50.0	 0.9771	 153.0	 1	 133.5	 60.0	 0.0	 0.0	 0.0	 0.0	 0.0	 0.0	 0.0	 0.0	 0.0	 0.0	 0.0; % COW
	19472	 58.274	 0.0	 38.0	 -23.0	 1.06184	 66.625	 0	 58.274	 19.7	 0.0	 0.0	 0.0	 0.0	 0.0	 0.0	 0.0	 0.0	 0.0	 0.0	 0.0; % NG
	19473	 58.274	 0.0	 40.0	 -23.0	 1.02905	 66.625	 0	 58.274	 19.7	 0.0	 0.0	 0.0	 0.0	 0.0	 0.0	 0.0	 0.0	 0.0	 0.0	 0.0; % NG
	19601	 0.0	 0.0	 0.0	 0.0	 1.07698	 6.5	 1	 5.85	 0.0	 0.0	 0.0	 0.0	 0.0	 0.0	 0.0	 0.0	 0.0	 0.0	 0.0	 0.0; % PEL
	19771	 42.5	 0.0	 0.0	 0.0	 1.09091	 46.875	 1	 42.5	 0.0	 0.0	 0.0	 0.0	 0.0	 0.0	 0.0	 0.0	 0.0	 0.0	 0.0	 0.0; % NG
	19772	 8.5	 2.262	 2.79	 -2.79	 1.11651	 8.5	 1	 8.5	 0.0	 0.0	 0.0	 0.0	 0.0	 0.0	 0.0	 0.0	 0.0	 0.0	 0.0	 0.0; % NG
	19773	 30.0	 3.184	 9.86	 -9.86	 1.11369	 38.714	 1	 30.0	 0.0	 0.0	 0.0	 0.0	 0.0	 0.0	 0.0	 0.0	 0.0	 0.0	 0.0	 0.0; % NG
	19971	 0.0	 1.224	 6.7	 -6.7	 1.12882	 20.7	 1	 20.0	 0.0	 0.0	 0.0	 0.0	 0.0	 0.0	 0.0	 0.0	 0.0	 0.0	 0.0	 0.0; % NG
	19972	 0.0	 0.0	 0.0	 0.0	 1.12593	 2.3	 1	 2.3	 0.0	 0.0	 0.0	 0.0	 0.0	 0.0	 0.0	 0.0	 0.0	 0.0	 0.0	 0.0; % PEL
	19973	 0.0	 0.0	 0.0	 0.0	 1.12593	 2.3	 1	 2.3	 0.0	 0.0	 0.0	 0.0	 0.0	 0.0	 0.0	 0.0	 0.0	 0.0	 0.0	 0.0; % PEL
	19974	 0.0	 0.253	 4.0	 -4.0	 1.12669	 16.1	 1	 16.1	 0.0	 0.0	 0.0	 0.0	 0.0	 0.0	 0.0	 0.0	 0.0	 0.0	 0.0	 0.0; % PEL
	21071	 0.0	 0.0	 0.0	 0.0	 1.03535	 0.85	 1	 0.5	 0.0	 0.0	 0.0	 0.0	 0.0	 0.0	 0.0	 0.0	 0.0	 0.0	 0.0	 0.0; % PEL
	21371	 0.0	 -7.053	 9.5	 -9.5	 1.06424	 31.73	 1	 28.5	 0.0	 0.0	 0.0	 0.0	 0.0	 0.0	 0.0	 0.0	 0.0	 0.0	 0.0	 0.0; % PEL
	21372	 0.0	 -5.282	 5.8	 -5.8	 1.06404	 23.38	 1	 17.5	 0.0	 0.0	 0.0	 0.0	 0.0	 0.0	 0.0	 0.0	 0.0	 0.0	 0.0	 0.0; % PEL
	21871	 0.0	 0.0	 0.0	 0.0	 0.98884	 1.7	 1	 1.7	 0.0	 0.0	 0.0	 0.0	 0.0	 0.0	 0.0	 0.0	 0.0	 0.0	 0.0	 0.0; % PEL
	21872	 0.0	 -0.99	 -0.99	 -1.28	 0.96839	 2.7	 1	 2.5	 0.0	 0.0	 0.0	 0.0	 0.0	 0.0	 0.0	 0.0	 0.0	 0.0	 0.0	 0.0; % PEL
	21873	 1.274	 0.0	 0.0	 0.0	 0.98209	 1.6	 0	 1.274	 0.0	 0.0	 0.0	 0.0	 0.0	 0.0	 0.0	 0.0	 0.0	 0.0	 0.0	 0.0; % PEL
	22273	 0.0	 -1.48	 0.0	 -1.48	 1.01346	 4.0	 1	 4.5	 0.0	 0.0	 0.0	 0.0	 0.0	 0.0	 0.0	 0.0	 0.0	 0.0	 0.0	 0.0; % NG
	22274	 5.94	 -2.4	 -2.4	 -2.4	 1.05036	 5.94	 1	 5.94	 0.0	 0.0	 0.0	 0.0	 0.0	 0.0	 0.0	 0.0	 0.0	 0.0	 0.0	 0.0; % NG
	22275	 4.25	 0.0	 0.0	 0.0	 1.15	 4.25	 1	 4.25	 0.0	 0.0	 0.0	 0.0	 0.0	 0.0	 0.0	 0.0	 0.0	 0.0	 0.0	 0.0; % NG
	22276	 0.0	 0.0	 0.0	 0.0	 1.05569	 6.68	 1	 5.95	 0.0	 0.0	 0.0	 0.0	 0.0	 0.0	 0.0	 0.0	 0.0	 0.0	 0.0	 0.0; % PEL
	22278	 4.62	 -1.0	 -1.0	 -1.0	 1.05636	 4.62	 1	 4.62	 0.0	 0.0	 0.0	 0.0	 0.0	 0.0	 0.0	 0.0	 0.0	 0.0	 0.0	 0.0; % NG
	22292	 6.0	 0.0	 0.0	 0.0	 1.05534	 6.0	 0	 6.0	 0.0	 0.0	 0.0	 0.0	 0.0	 0.0	 0.0	 0.0	 0.0	 0.0	 0.0	 0.0; % NG
	22371	 10.499	 0.0	 0.0	 0.0	 1.03791	 59.5	 1	 59.5	 0.0	 0.0	 0.0	 0.0	 0.0	 0.0	 0.0	 0.0	 0.0	 0.0	 0.0	 0.0; % NG
	22471	 0.0	 0.0	 0.0	 0.0	 0.95528	 2.55	 1	 2.55	 0.0	 0.0	 0.0	 0.0	 0.0	 0.0	 0.0	 0.0	 0.0	 0.0	 0.0	 0.0; % PEL
	22472	 4.25	 0.0	 0.0	 0.0	 0.94864	 4.25	 1	 4.25	 0.0	 0.0	 0.0	 0.0	 0.0	 0.0	 0.0	 0.0	 0.0	 0.0	 0.0	 0.0; % NG
	22473	 0.0	 -1.5	 -1.5	 -1.5	 0.92942	 4.25	 1	 4.25	 0.0	 0.0	 0.0	 0.0	 0.0	 0.0	 0.0	 0.0	 0.0	 0.0	 0.0	 0.0; % PEL
	22671	 52.1	 0.0	 32.6	 -22.7	 1.01007	 62.0	 0	 52.1	 1.2	 0.0	 0.0	 0.0	 0.0	 0.0	 0.0	 0.0	 0.0	 0.0	 0.0	 0.0; % NG
	22672	 52.1	 0.0	 32.6	 -22.7	 1.01007	 62.0	 0	 52.1	 1.2	 0.0	 0.0	 0.0	 0.0	 0.0	 0.0	 0.0	 0.0	 0.0	 0.0	 0.0; % PEL
	22871	 0.0	 -1.09	 -0.84	 -1.09	 0.92929	 2.4	 1	 2.4	 0.0	 0.0	 0.0	 0.0	 0.0	 0.0	 0.0	 0.0	 0.0	 0.0	 0.0	 0.0; % PEL
	25604	 1.6	 0.0	 0.0	 0.0	 1.08165	 1.7	 0	 1.6	 0.0	 0.0	 0.0	 0.0	 0.0	 0.0	 0.0	 0.0	 0.0	 0.0	 0.0	 0.0; % PEL
	26771	 0.0	 -9.223	 10.0	 -10.0	 0.96695	 26.0	 1	 26.0	 0.0	 0.0	 0.0	 0.0	 0.0	 0.0	 0.0	 0.0	 0.0	 0.0	 0.0	 0.0; % PEL
	26772	 6.0	 0.0	 0.0	 0.0	 0.99274	 6.0	 1	 6.0	 6.0	 0.0	 0.0	 0.0	 0.0	 0.0	 0.0	 0.0	 0.0	 0.0	 0.0	 0.0; % NG
	26773	 22.0	 -10.0	 10.0	 -10.0	 0.95847	 22.0	 1	 22.0	 0.0	 0.0	 0.0	 0.0	 0.0	 0.0	 0.0	 0.0	 0.0	 0.0	 0.0	 0.0; % NG
	26774	 6.0	 0.0	 0.0	 0.0	 0.99283	 6.0	 1	 6.0	 6.0	 0.0	 0.0	 0.0	 0.0	 0.0	 0.0	 0.0	 0.0	 0.0	 0.0	 0.0; % NG
	27071	 0.0	 0.0	 0.0	 0.0	 1.04357	 0.8	 1	 0.8	 0.0	 0.0	 0.0	 0.0	 0.0	 0.0	 0.0	 0.0	 0.0	 0.0	 0.0	 0.0; % NG
	27204	 4.0	 1.0	 1.0	 -1.0	 1.07766	 5.0	 1	 4.0	 0.0	 0.0	 0.0	 0.0	 0.0	 0.0	 0.0	 0.0	 0.0	 0.0	 0.0	 0.0; % NG
	27361	 0.0	 2.23	 12.3	 -12.3	 1.05324	 12.3	 1	 0.0	 0.0	 0.0	 0.0	 0.0	 0.0	 0.0	 0.0	 0.0	 0.0	 0.0	 0.0	 0.0; % SYNC
	27371	 0.0	 0.0	 0.0	 0.0	 1.05323	 14.45	 1	 12.8	 0.0	 0.0	 0.0	 0.0	 0.0	 0.0	 0.0	 0.0	 0.0	 0.0	 0.0	 0.0; % NG
	27372	 0.0	 0.0	 0.0	 0.0	 1.05323	 18.75	 1	 17.0	 0.0	 0.0	 0.0	 0.0	 0.0	 0.0	 0.0	 0.0	 0.0	 0.0	 0.0	 0.0; % PEL
	27374	 0.0	 -1.97	 -1.97	 -1.97	 1.02343	 6.25	 1	 6.0	 0.0	 0.0	 0.0	 0.0	 0.0	 0.0	 0.0	 0.0	 0.0	 0.0	 0.0	 0.0; % NG
	27471	 57.0	 0.0	 42.0	 -3.0	 1.04375	 75.0	 0	 57.0	 25.0	 0.0	 0.0	 0.0	 0.0	 0.0	 0.0	 0.0	 0.0	 0.0	 0.0	 0.0; % NG
	27472	 51.8	 0.0	 40.0	 -3.0	 1.04386	 75.0	 0	 51.8	 25.0	 0.0	 0.0	 0.0	 0.0	 0.0	 0.0	 0.0	 0.0	 0.0	 0.0	 0.0; % NG
	27473	 121.0	 0.0	 82.0	 -48.0	 1.03053	 150.0	 0	 121.0	 30.0	 0.0	 0.0	 0.0	 0.0	 0.0	 0.0	 0.0	 0.0	 0.0	 0.0	 0.0; % COW
	27474	 469.5	 124.394	 285.0	 -182.0	 1.02879	 570.6	 1	 469.5	 235.0	 0.0	 0.0	 0.0	 0.0	 0.0	 0.0	 0.0	 0.0	 0.0	 0.0	 0.0; % COW
	27771	 0.0	 -0.181	 13.0	 -13.61	 1.09083	 41.4	 1	 41.225	 0.0	 0.0	 0.0	 0.0	 0.0	 0.0	 0.0	 0.0	 0.0	 0.0	 0.0	 0.0; % PEL
	27772	 0.0	 -2.0	 -2.0	 -2.0	 1.08084	 11.912	 1	 10.0	 0.0	 0.0	 0.0	 0.0	 0.0	 0.0	 0.0	 0.0	 0.0	 0.0	 0.0	 0.0; % NG
	27773	 0.0	 -1.0	 -1.0	 -1.0	 1.07934	 4.6	 1	 5.0	 0.0	 0.0	 0.0	 0.0	 0.0	 0.0	 0.0	 0.0	 0.0	 0.0	 0.0	 0.0; % NG
	27774	 0.0	 -3.0	 -3.0	 -3.0	 1.08317	 18.4	 1	 18.0	 0.0	 0.0	 0.0	 0.0	 0.0	 0.0	 0.0	 0.0	 0.0	 0.0	 0.0	 0.0; % PEL
	27871	 0.0	 -0.7	 -0.7	 -0.7	 0.9632	 3.3	 1	 3.3	 0.0	 0.0	 0.0	 0.0	 0.0	 0.0	 0.0	 0.0	 0.0	 0.0	 0.0	 0.0; % PEL
	28071	 15.0	 -6.0	 -6.0	 -6.0	 0.88424	 15.0	 1	 15.0	 0.0	 0.0	 0.0	 0.0	 0.0	 0.0	 0.0	 0.0	 0.0	 0.0	 0.0	 0.0; % COW
	28271	 0.0	 -1.2	 -1.2	 -1.2	 0.93767	 3.34	 1	 3.0	 0.0	 0.0	 0.0	 0.0	 0.0	 0.0	 0.0	 0.0	 0.0	 0.0	 0.0	 0.0; % PEL
	28571	 450.5	 56.117	 282.1	 -190.0	 1.06916	 535.5	 1	 450.5	 110.1	 0.0	 0.0	 0.0	 0.0	 0.0	 0.0	 0.0	 0.0	 0.0	 0.0	 0.0; % NG
	28871	 6.0	 -0.435	 1.97	 -1.97	 1.10212	 6.68	 1	 6.0	 0.0	 0.0	 0.0	 0.0	 0.0	 0.0	 0.0	 0.0	 0.0	 0.0	 0.0	 0.0; % NG
	28872	 0.0	 0.0	 0.0	 0.0	 1.10488	 13.8	 1	 10.5	 0.0	 0.0	 0.0	 0.0	 0.0	 0.0	 0.0	 0.0	 0.0	 0.0	 0.0	 0.0; % NG
	28873	 0.0	 -2.287	 5.42	 -5.42	 1.09923	 18.4	 1	 16.5	 0.0	 0.0	 0.0	 0.0	 0.0	 0.0	 0.0	 0.0	 0.0	 0.0	 0.0	 0.0; % PEL
	28874	 26.0	 0.0	 0.0	 0.0	 1.03181	 27.6	 1	 26.0	 0.0	 0.0	 0.0	 0.0	 0.0	 0.0	 0.0	 0.0	 0.0	 0.0	 0.0	 0.0; % COW
	29671	 123.0	 7.359	 107.0	 -53.0	 1.09051	 150.0	 1	 123.0	 40.0	 0.0	 0.0	 0.0	 0.0	 0.0	 0.0	 0.0	 0.0	 0.0	 0.0	 0.0; % COW
	29672	 236.2	 173.986	 181.0	 -87.0	 1.08444	 288.0	 1	 236.2	 138.0	 0.0	 0.0	 0.0	 0.0	 0.0	 0.0	 0.0	 0.0	 0.0	 0.0	 0.0; % NG
	29673	 400.0	 118.754	 255.0	 -170.0	 1.01022	 473.0	 1	 400.0	 194.0	 0.0	 0.0	 0.0	 0.0	 0.0	 0.0	 0.0	 0.0	 0.0	 0.0	 0.0; % COW
	30671	 4.0	 0.962	 13.0	 -4.0	 0.98683	 21.4	 1	 15.0	 4.0	 0.0	 0.0	 0.0	 0.0	 0.0	 0.0	 0.0	 0.0	 0.0	 0.0	 0.0; % NG
	30671	 1.0	 0.766	 3.0	 -1.0	 0.98683	 5.7	 1	 4.0	 1.0	 0.0	 0.0	 0.0	 0.0	 0.0	 0.0	 0.0	 0.0	 0.0	 0.0	 0.0; % PEL
	31071	 0.0	 0.0	 0.0	 0.0	 1.00736	 2.55	 1	 2.55	 0.0	 0.0	 0.0	 0.0	 0.0	 0.0	 0.0	 0.0	 0.0	 0.0	 0.0	 0.0; % PEL
	31074	 0.0	 0.0	 0.0	 0.0	 1.00736	 2.55	 1	 2.55	 0.0	 0.0	 0.0	 0.0	 0.0	 0.0	 0.0	 0.0	 0.0	 0.0	 0.0	 0.0; % PEL
	31271	 163.0	 55.398	 295.0	 -100.0	 0.94281	 500.0	 1	 409.9	 163.0	 0.0	 0.0	 0.0	 0.0	 0.0	 0.0	 0.0	 0.0	 0.0	 0.0	 0.0; % NG
	32404	 4.26	 0.0	 1.0	 -1.0	 1.07557	 4.8	 0	 4.26	 0.0	 0.0	 0.0	 0.0	 0.0	 0.0	 0.0	 0.0	 0.0	 0.0	 0.0	 0.0; % NG
	32570	 0.0	 -4.599	 4.6	 -4.6	 1.02843	 46.875	 1	 44.35	 0.0	 0.0	 0.0	 0.0	 0.0	 0.0	 0.0	 0.0	 0.0	 0.0	 0.0	 0.0; % NG
	32576	 0.0	 -1.331	 0.0	 -5.03	 1.0655	 11.2	 1	 11.2	 0.0	 0.0	 0.0	 0.0	 0.0	 0.0	 0.0	 0.0	 0.0	 0.0	 0.0	 0.0; % NG
	32577	 3.6	 -0.258	 0.0	 -5.03	 1.07295	 3.6	 1	 3.6	 0.0	 0.0	 0.0	 0.0	 0.0	 0.0	 0.0	 0.0	 0.0	 0.0	 0.0	 0.0; % NG
	32578	 1.25	 0.0	 0.0	 0.0	 1.03764	 1.25	 0	 1.25	 0.0	 0.0	 0.0	 0.0	 0.0	 0.0	 0.0	 0.0	 0.0	 0.0	 0.0	 0.0; % PEL
	32604	 7.5	 0.0	 1.0	 -1.0	 1.11355	 8.5	 0	 7.5	 2.0	 0.0	 0.0	 0.0	 0.0	 0.0	 0.0	 0.0	 0.0	 0.0	 0.0	 0.0; % NG
	32604	 0.18	 0.0	 0.0	 0.0	 1.11355	 0.2	 0	 0.18	 0.0	 0.0	 0.0	 0.0	 0.0	 0.0	 0.0	 0.0	 0.0	 0.0	 0.0	 0.0; % PEL
	33071	 4.5	 -0.0	 0.0	 -1.48	 1.0704	 4.0	 1	 4.5	 0.0	 0.0	 0.0	 0.0	 0.0	 0.0	 0.0	 0.0	 0.0	 0.0	 0.0	 0.0; % NG
	33072	 0.0	 0.0	 0.0	 0.0	 1.0364	 9.35	 1	 9.35	 0.0	 0.0	 0.0	 0.0	 0.0	 0.0	 0.0	 0.0	 0.0	 0.0	 0.0	 0.0; % NG
	33971	 0.0	 -1.379	 28.6	 -28.6	 1.02352	 104.23	 1	 87.0	 0.0	 0.0	 0.0	 0.0	 0.0	 0.0	 0.0	 0.0	 0.0	 0.0	 0.0	 0.0; % NG
	35071	 0.0	 -1.64	 -1.64	 -2.13	 0.94783	 4.6	 1	 4.6	 0.0	 0.0	 0.0	 0.0	 0.0	 0.0	 0.0	 0.0	 0.0	 0.0	 0.0	 0.0; % NG
	35074	 70.0	 -13.583	 60.0	 -39.0	 0.93791	 121.1	 1	 103.3	 70.0	 0.0	 0.0	 0.0	 0.0	 0.0	 0.0	 0.0	 0.0	 0.0	 0.0	 0.0; % NG
	35871	 0.0	 0.0	 0.0	 0.0	 0.90916	 2.55	 1	 2.55	 0.0	 0.0	 0.0	 0.0	 0.0	 0.0	 0.0	 0.0	 0.0	 0.0	 0.0	 0.0; % PEL
	35872	 0.0	 0.0	 0.0	 0.0	 0.90916	 2.55	 1	 2.45	 0.0	 0.0	 0.0	 0.0	 0.0	 0.0	 0.0	 0.0	 0.0	 0.0	 0.0	 0.0; % PEL
	35873	 0.0	 0.0	 0.0	 0.0	 0.90916	 3.2	 1	 3.2	 0.0	 0.0	 0.0	 0.0	 0.0	 0.0	 0.0	 0.0	 0.0	 0.0	 0.0	 0.0; % PEL
	35875	 0.0	 -6.0	 -6.0	 -6.0	 0.87343	 17.7	 1	 15.0	 0.0	 0.0	 0.0	 0.0	 0.0	 0.0	 0.0	 0.0	 0.0	 0.0	 0.0	 0.0; % PEL
	35876	 0.0	 -4.8	 -4.8	 -4.8	 0.87033	 11.88	 1	 11.88	 0.0	 0.0	 0.0	 0.0	 0.0	 0.0	 0.0	 0.0	 0.0	 0.0	 0.0	 0.0; % NG
	35877	 4.931	 0.0	 0.0	 0.0	 0.89219	 5.4	 1	 4.99	 0.0	 0.0	 0.0	 0.0	 0.0	 0.0	 0.0	 0.0	 0.0	 0.0	 0.0	 0.0; % NG
	36271	 36.0	 -1.535	 12.0	 -12.0	 1.00809	 36.0	 1	 36.0	 0.0	 0.0	 0.0	 0.0	 0.0	 0.0	 0.0	 0.0	 0.0	 0.0	 0.0	 0.0; % NG
	36272	 0.0	 -2.03	 7.5	 -75.0	 1.00462	 20.0	 1	 19.0	 0.0	 0.0	 0.0	 0.0	 0.0	 0.0	 0.0	 0.0	 0.0	 0.0	 0.0	 0.0; % PEL
	36471	 0.0	 0.0	 0.0	 0.0	 1.04327	 15.0	 1	 14.45	 0.0	 0.0	 0.0	 0.0	 0.0	 0.0	 0.0	 0.0	 0.0	 0.0	 0.0	 0.0; % PEL
	36472	 4.0	 -1.31	 -1.31	 -1.7	 1.03675	 4.6	 1	 4.0	 0.0	 0.0	 0.0	 0.0	 0.0	 0.0	 0.0	 0.0	 0.0	 0.0	 0.0	 0.0; % NG
	36473	 0.0	 0.0	 0.0	 0.0	 1.04618	 4.6	 1	 4.6	 0.0	 0.0	 0.0	 0.0	 0.0	 0.0	 0.0	 0.0	 0.0	 0.0	 0.0	 0.0; % NG
	36474	 0.0	 -1.18	 -1.18	 -1.53	 1.01244	 4.0	 1	 3.6	 0.0	 0.0	 0.0	 0.0	 0.0	 0.0	 0.0	 0.0	 0.0	 0.0	 0.0	 0.0; % NG
	36475	 4.0	 -1.2	 -1.2	 -1.2	 1.02681	 4.6	 1	 4.0	 0.0	 0.0	 0.0	 0.0	 0.0	 0.0	 0.0	 0.0	 0.0	 0.0	 0.0	 0.0; % NG
	36476	 0.0	 0.605	 4.0	 -4.0	 1.03642	 17.868	 1	 14.8	 0.0	 0.0	 0.0	 0.0	 0.0	 0.0	 0.0	 0.0	 0.0	 0.0	 0.0	 0.0; % NG
	38071	 0.0	 -0.56	 -0.56	 -0.56	 1.0939	 1.6	 1	 1.6	 0.0	 0.0	 0.0	 0.0	 0.0	 0.0	 0.0	 0.0	 0.0	 0.0	 0.0	 0.0; % PEL
	38244	 1.0	 0.0	 0.0	 0.0	 1.04304	 6.5	 0	 1.0	 0.0	 0.0	 0.0	 0.0	 0.0	 0.0	 0.0	 0.0	 0.0	 0.0	 0.0	 0.0; % PEL
	38271	 4.974	 0.0	 0.0	 0.0	 0.97574	 11.69	 1	 10.5	 0.0	 0.0	 0.0	 0.0	 0.0	 0.0	 0.0	 0.0	 0.0	 0.0	 0.0	 0.0; % NG
	38272	 0.0	 0.0	 0.0	 0.0	 0.98091	 5.01	 1	 4.5	 0.0	 0.0	 0.0	 0.0	 0.0	 0.0	 0.0	 0.0	 0.0	 0.0	 0.0	 0.0; % NG
	38273	 6.914	 0.0	 0.0	 0.0	 0.99928	 8.35	 1	 7.5	 0.0	 0.0	 0.0	 0.0	 0.0	 0.0	 0.0	 0.0	 0.0	 0.0	 0.0	 0.0; % NG
	38870	 25.3	 0.0	 0.0	 0.0	 1.02009	 25.3	 1	 25.3	 0.0	 0.0	 0.0	 0.0	 0.0	 0.0	 0.0	 0.0	 0.0	 0.0	 0.0	 0.0; % NG
	38871	 0.0	 0.0	 0.0	 -2.88	 1.01457	 10.0	 1	 8.75	 0.0	 0.0	 0.0	 0.0	 0.0	 0.0	 0.0	 0.0	 0.0	 0.0	 0.0	 0.0; % PEL
	39471	 302.0	 68.619	 176.0	 -112.0	 1.05627	 359.0	 1	 302.0	 99.0	 0.0	 0.0	 0.0	 0.0	 0.0	 0.0	 0.0	 0.0	 0.0	 0.0	 0.0; % COW
	39472	 99.0	 -15.734	 176.0	 -112.0	 0.93628	 359.0	 1	 303.0	 99.0	 0.0	 0.0	 0.0	 0.0	 0.0	 0.0	 0.0	 0.0	 0.0	 0.0	 0.0; % NG
	39473	 99.0	 31.914	 176.0	 -112.0	 1.0463	 359.0	 1	 302.0	 99.0	 0.0	 0.0	 0.0	 0.0	 0.0	 0.0	 0.0	 0.0	 0.0	 0.0	 0.0; % NG
	39675	 90.0	 0.0	 60.0	 -19.0	 1.04579	 100.9	 0	 90.0	 60.0	 0.0	 0.0	 0.0	 0.0	 0.0	 0.0	 0.0	 0.0	 0.0	 0.0	 0.0; % NG
	40471	 0.0	 0.0	 0.0	 0.0	 0.95265	 6.9	 1	 6.0	 0.0	 0.0	 0.0	 0.0	 0.0	 0.0	 0.0	 0.0	 0.0	 0.0	 0.0	 0.0; % NG
	40771	 41.765	 0.0	 0.0	 0.0	 0.90025	 52.9	 1	 52.9	 0.0	 0.0	 0.0	 0.0	 0.0	 0.0	 0.0	 0.0	 0.0	 0.0	 0.0	 0.0; % NG
	40772	 18.06	 0.0	 0.0	 0.0	 0.9004	 19.5	 1	 18.06	 0.0	 0.0	 0.0	 0.0	 0.0	 0.0	 0.0	 0.0	 0.0	 0.0	 0.0	 0.0; % NG
	40773	 0.0	 0.0	 0.0	 0.0	 0.90006	 16.1	 1	 14.0	 0.0	 0.0	 0.0	 0.0	 0.0	 0.0	 0.0	 0.0	 0.0	 0.0	 0.0	 0.0; % NG
	42271	 0.0	 -1.64	 -1.64	 -2.13	 0.95541	 6.0	 1	 4.999	 0.0	 0.0	 0.0	 0.0	 0.0	 0.0	 0.0	 0.0	 0.0	 0.0	 0.0	 0.0; % PEL
	42404	 15.0	 0.0	 5.0	 0.0	 1.09556	 20.0	 0	 15.0	 6.0	 0.0	 0.0	 0.0	 0.0	 0.0	 0.0	 0.0	 0.0	 0.0	 0.0	 0.0; % PEL
	42404	 15.0	 0.0	 5.0	 0.0	 1.09556	 20.0	 0	 15.0	 6.0	 0.0	 0.0	 0.0	 0.0	 0.0	 0.0	 0.0	 0.0	 0.0	 0.0	 0.0; % NG
	42404	 15.0	 0.0	 5.0	 0.0	 1.09556	 20.0	 0	 15.0	 6.0	 0.0	 0.0	 0.0	 0.0	 0.0	 0.0	 0.0	 0.0	 0.0	 0.0	 0.0; % NG
	42474	 118.0	 0.0	 55.0	 -20.0	 1.05219	 132.1	 0	 118.0	 40.0	 0.0	 0.0	 0.0	 0.0	 0.0	 0.0	 0.0	 0.0	 0.0	 0.0	 0.0; % NG
	42475	 109.5	 0.0	 55.0	 -20.0	 1.0803	 132.1	 0	 109.5	 20.0	 0.0	 0.0	 0.0	 0.0	 0.0	 0.0	 0.0	 0.0	 0.0	 0.0	 0.0; % NG
	42501	 102.0	 0.0	 90.0	 -47.0	 1.02661	 140.0	 0	 102.0	 35.0	 0.0	 0.0	 0.0	 0.0	 0.0	 0.0	 0.0	 0.0	 0.0	 0.0	 0.0; % COW
	42672	 0.0	 -0.83	 -0.83	 -1.07	 1.01895	 2.55	 1	 2.44	 0.0	 0.0	 0.0	 0.0	 0.0	 0.0	 0.0	 0.0	 0.0	 0.0	 0.0	 0.0; % PEL
	42673	 3.9	 -1.3	 -1.3	 -1.3	 1.02372	 4.6	 1	 3.9	 0.0	 0.0	 0.0	 0.0	 0.0	 0.0	 0.0	 0.0	 0.0	 0.0	 0.0	 0.0; % NG
	42674	 0.0	 0.0	 0.0	 0.0	 1.03412	 2.55	 1	 2.55	 0.0	 0.0	 0.0	 0.0	 0.0	 0.0	 0.0	 0.0	 0.0	 0.0	 0.0	 0.0; % NG
	43671	 0.0	 0.0	 0.0	 0.0	 1.02298	 6.9	 1	 6.9	 0.0	 0.0	 0.0	 0.0	 0.0	 0.0	 0.0	 0.0	 0.0	 0.0	 0.0	 0.0; % PEL
	43672	 0.0	 0.0	 0.0	 0.0	 1.02298	 2.3	 1	 2.3	 0.0	 0.0	 0.0	 0.0	 0.0	 0.0	 0.0	 0.0	 0.0	 0.0	 0.0	 0.0; % PEL
	43774	 34.15	 -10.0	 10.0	 -10.0	 0.89784	 36.8	 1	 34.15	 0.0	 0.0	 0.0	 0.0	 0.0	 0.0	 0.0	 0.0	 0.0	 0.0	 0.0	 0.0; % NG
	44471	 15.0	 4.841	 9.0	 -10.0	 1.11308	 18.8	 1	 15.0	 5.0	 0.0	 0.0	 0.0	 0.0	 0.0	 0.0	 0.0	 0.0	 0.0	 0.0	 0.0; % NG
	44471	 15.0	 4.841	 9.0	 -10.0	 1.11308	 18.8	 1	 15.0	 5.0	 0.0	 0.0	 0.0	 0.0	 0.0	 0.0	 0.0	 0.0	 0.0	 0.0	 0.0; % NG
	44471	 4.0	 1.336	 3.0	 -1.0	 1.11308	 5.0	 1	 4.0	 1.0	 0.0	 0.0	 0.0	 0.0	 0.0	 0.0	 0.0	 0.0	 0.0	 0.0	 0.0; % NG
	46801	 6.5	 0.0	 0.0	 0.0	 1.05993	 6.75	 0	 6.5	 2.0	 0.0	 0.0	 0.0	 0.0	 0.0	 0.0	 0.0	 0.0	 0.0	 0.0	 0.0; % COW
...
];

%% generator cost data
%	2	startup	shutdown	n	c(n-1)	...	c0
mpc.gencost = [
	2	 0.0	 0.0	 3	   0.000000	   0.537327	   0.000000; % COW
	2	 0.0	 0.0	 3	   0.000000	   1.121168	   0.000000; % NG
	2	 0.0	 0.0	 3	   0.000000	   0.950221	   0.000000; % COW
	2	 0.0	 0.0	 3	   0.000000	   1.001259	   0.000000; % NG
	2	 0.0	 0.0	 3	   0.000000	   1.230221	   0.000000; % NG
	2	 0.0	 0.0	 3	   0.000000	   7.116223	   0.000000; % PEL
	2	 0.0	 0.0	 3	   0.000000	   1.084067	   0.000000; % NG
	2	 0.0	 0.0	 3	   0.000000	   1.124269	   0.000000; % NG
	2	 0.0	 0.0	 3	   0.000000	   0.762035	   0.000000; % NG
	2	 0.0	 0.0	 3	   0.000000	   1.329139	   0.000000; % NG
	2	 0.0	 0.0	 3	   0.000000	   1.066067	   0.000000; % NG
	2	 0.0	 0.0	 3	   0.000000	   1.349195	   0.000000; % NG
	2	 0.0	 0.0	 3	   0.000000	   0.848855	   0.000000; % NG
	2	 0.0	 0.0	 3	   0.000000	   1.191138	   0.000000; % NG
	2	 0.0	 0.0	 3	   0.000000	   0.864138	   0.000000; % NG
	2	 0.0	 0.0	 3	   0.000000	   6.603358	   0.000000; % PEL
	2	 0.0	 0.0	 3	   0.000000	   7.605204	   0.000000; % PEL
	2	 0.0	 0.0	 3	   0.000000	   7.154894	   0.000000; % PEL
	2	 0.0	 0.0	 3	   0.000000	   0.972999	   0.000000; % COW
	2	 0.0	 0.0	 3	   0.000000	   7.093512	   0.000000; % PEL
	2	 0.0	 0.0	 3	   0.000000	   1.196938	   0.000000; % NG
	2	 0.0	 0.0	 3	   0.000000	   1.433331	   0.000000; % NG
	2	 0.0	 0.0	 3	   0.000000	   1.017277	   0.000000; % NG
	2	 0.0	 0.0	 3	   0.000000	   1.373174	   0.000000; % NG
	2	 0.0	 0.0	 3	   0.000000	   6.434306	   0.000000; % PEL
	2	 0.0	 0.0	 3	   0.000000	   0.660731	   0.000000; % COW
	2	 0.0	 0.0	 3	   0.000000	   7.655592	   0.000000; % PEL
	2	 0.0	 0.0	 3	   0.000000	   6.723925	   0.000000; % PEL
	2	 0.0	 0.0	 3	   0.000000	   1.081920	   0.000000; % NG
	2	 0.0	 0.0	 3	   0.000000	   1.161520	   0.000000; % NG
	2	 0.0	 0.0	 3	   0.000000	   7.111085	   0.000000; % PEL
	2	 0.0	 0.0	 3	   0.000000	   0.413376	   0.000000; % COW
	2	 0.0	 0.0	 3	   0.000000	   0.758704	   0.000000; % NG
	2	 0.0	 0.0	 3	   0.000000	   6.459859	   0.000000; % PEL
	2	 0.0	 0.0	 3	   0.000000	   6.943110	   0.000000; % PEL
	2	 0.0	 0.0	 3	   0.000000	   0.994324	   0.000000; % COW
	2	 0.0	 0.0	 3	   0.000000	   0.671335	   0.000000; % COW
	2	 0.0	 0.0	 3	   0.000000	   0.899596	   0.000000; % NG
	2	 0.0	 0.0	 3	   0.000000	   1.159442	   0.000000; % NG
	2	 0.0	 0.0	 3	   0.000000	   7.109727	   0.000000; % PEL
	2	 0.0	 0.0	 3	   0.000000	   7.412694	   0.000000; % PEL
	2	 0.0	 0.0	 3	   0.000000	   6.915848	   0.000000; % PEL
	2	 0.0	 0.0	 3	   0.000000	   6.871121	   0.000000; % PEL
	2	 0.0	 0.0	 3	   0.000000	   6.460558	   0.000000; % PEL
	2	 0.0	 0.0	 3	   0.000000	   0.783189	   0.000000; % NG
	2	 0.0	 0.0	 3	   0.000000	   0.795650	   0.000000; % COW
	2	 0.0	 0.0	 3	   0.000000	   6.963627	   0.000000; % PEL
	2	 0.0	 0.0	 3	   0.000000	   6.871234	   0.000000; % PEL
	2	 0.0	 0.0	 3	   0.000000	   7.767267	   0.000000; % PEL
	2	 0.0	 0.0	 3	   0.000000	   0.843894	   0.000000; % NG
	2	 0.0	 0.0	 3	   0.000000	   0.787371	   0.000000; % NG
	2	 0.0	 0.0	 3	   0.000000	   0.892153	   0.000000; % NG
	2	 0.0	 0.0	 3	   0.000000	   1.160876	   0.000000; % NG
	2	 0.0	 0.0	 3	   0.000000	   0.932968	   0.000000; % NG
	2	 0.0	 0.0	 3	   0.000000	   0.791029	   0.000000; % NG
	2	 0.0	 0.0	 3	   0.000000	   1.080471	   0.000000; % NG
	2	 0.0	 0.0	 3	   0.000000	   6.791029	   0.000000; % PEL
	2	 0.0	 0.0	 3	   0.000000	   7.550679	   0.000000; % PEL
	2	 0.0	 0.0	 3	   0.000000	   0.920327	   0.000000; % COW
	2	 0.0	 0.0	 3	   0.000000	   0.952499	   0.000000; % NG
	2	 0.0	 0.0	 3	   0.000000	   7.065405	   0.000000; % PEL
	2	 0.0	 0.0	 3	   0.000000	   0.740013	   0.000000; % NG
	2	 0.0	 0.0	 3	   0.000000	   6.817153	   0.000000; % PEL
	2	 0.0	 0.0	 3	   0.000000	   1.456089	   0.000000; % NG
	2	 0.0	 0.0	 3	   0.000000	   0.884468	   0.000000; % NG
	2	 0.0	 0.0	 3	   0.000000	   1.034166	   0.000000; % NG
	2	 0.0	 0.0	 3	   0.000000	   1.048210	   0.000000; % NG
	2	 0.0	 0.0	 3	   0.000000	   7.254660	   0.000000; % PEL
	2	 0.0	 0.0	 3	   0.000000	   7.239807	   0.000000; % PEL
	2	 0.0	 0.0	 3	   0.000000	   7.251675	   0.000000; % PEL
	2	 0.0	 0.0	 3	   0.000000	   1.120700	   0.000000; % NG
	2	 0.0	 0.0	 3	   0.000000	   0.655693	   0.000000; % NG
	2	 0.0	 0.0	 3	   0.000000	   0.999111	   0.000000; % NG
	2	 0.0	 0.0	 3	   0.000000	   1.029084	   0.000000; % NG
	2	 0.0	 0.0	 3	   0.000000	   0.000000	   0.000000; % SYNC
	2	 0.0	 0.0	 3	   0.000000	   1.373216	   0.000000; % COW
	2	 0.0	 0.0	 3	   0.000000	   1.097361	   0.000000; % NG
	2	 0.0	 0.0	 3	   0.000000	   0.815574	   0.000000; % COW
	2	 0.0	 0.0	 3	   0.000000	   1.077884	   0.000000; % NG
	2	 0.0	 0.0	 3	   0.000000	   0.955403	   0.000000; % NG
	2	 0.0	 0.0	 3	   0.000000	   5.868364	   0.000000; % PEL
	2	 0.0	 0.0	 3	   0.000000	   1.004548	   0.000000; % NG
	2	 0.0	 0.0	 3	   0.000000	   1.019733	   0.000000; % NG
	2	 0.0	 0.0	 3	   0.000000	   0.993317	   0.000000; % NG
	2	 0.0	 0.0	 3	   0.000000	   1.277610	   0.000000; % NG
	2	 0.0	 0.0	 3	   0.000000	   6.445915	   0.000000; % PEL
	2	 0.0	 0.0	 3	   0.000000	   7.157770	   0.000000; % PEL
	2	 0.0	 0.0	 3	   0.000000	   6.386578	   0.000000; % PEL
	2	 0.0	 0.0	 3	   0.000000	   7.117970	   0.000000; % PEL
	2	 0.0	 0.0	 3	   0.000000	   7.215496	   0.000000; % PEL
	2	 0.0	 0.0	 3	   0.000000	   6.872684	   0.000000; % PEL
	2	 0.0	 0.0	 3	   0.000000	   7.169138	   0.000000; % PEL
	2	 0.0	 0.0	 3	   0.000000	   6.618270	   0.000000; % PEL
	2	 0.0	 0.0	 3	   0.000000	   6.362177	   0.000000; % PEL
	2	 0.0	 0.0	 3	   0.000000	   1.130169	   0.000000; % NG
	2	 0.0	 0.0	 3	   0.000000	   0.922015	   0.000000; % NG
	2	 0.0	 0.0	 3	   0.000000	   0.684060	   0.000000; % NG
	2	 0.0	 0.0	 3	   0.000000	   6.871546	   0.000000; % PEL
	2	 0.0	 0.0	 3	   0.000000	   0.888060	   0.000000; % NG
	2	 0.0	 0.0	 3	   0.000000	   0.691225	   0.000000; % NG
	2	 0.0	 0.0	 3	   0.000000	   1.153223	   0.000000; % NG
	2	 0.0	 0.0	 3	   0.000000	   6.946241	   0.000000; % PEL
	2	 0.0	 0.0	 3	   0.000000	   1.154892	   0.000000; % NG
	2	 0.0	 0.0	 3	   0.000000	   6.445219	   0.000000; % PEL
	2	 0.0	 0.0	 3	   0.000000	   0.851933	   0.000000; % NG
	2	 0.0	 0.0	 3	   0.000000	   7.405452	   0.000000; % PEL
	2	 0.0	 0.0	 3	   0.000000	   7.020898	   0.000000; % PEL
	2	 0.0	 0.0	 3	   0.000000	   7.369936	   0.000000; % PEL
	2	 0.0	 0.0	 3	   0.000000	   7.366826	   0.000000; % PEL
	2	 0.0	 0.0	 3	   0.000000	   1.290457	   0.000000; % NG
	2	 0.0	 0.0	 3	   0.000000	   0.979178	   0.000000; % NG
	2	 0.0	 0.0	 3	   0.000000	   0.951592	   0.000000; % NG
	2	 0.0	 0.0	 3	   0.000000	   1.353832	   0.000000; % NG
	2	 0.0	 0.0	 3	   0.000000	   1.028390	   0.000000; % NG
	2	 0.0	 0.0	 3	   0.000000	   0.000000	   0.000000; % SYNC
	2	 0.0	 0.0	 3	   0.000000	   1.393694	   0.000000; % NG
	2	 0.0	 0.0	 3	   0.000000	   7.142990	   0.000000; % PEL
	2	 0.0	 0.0	 3	   0.000000	   1.214967	   0.000000; % NG
	2	 0.0	 0.0	 3	   0.000000	   0.802609	   0.000000; % NG
	2	 0.0	 0.0	 3	   0.000000	   1.481255	   0.000000; % NG
	2	 0.0	 0.0	 3	   0.000000	   0.566539	   0.000000; % COW
	2	 0.0	 0.0	 3	   0.000000	   0.639474	   0.000000; % COW
	2	 0.0	 0.0	 3	   0.000000	   7.064810	   0.000000; % PEL
	2	 0.0	 0.0	 3	   0.000000	   1.298584	   0.000000; % NG
	2	 0.0	 0.0	 3	   0.000000	   1.519593	   0.000000; % NG
	2	 0.0	 0.0	 3	   0.000000	   7.104392	   0.000000; % PEL
	2	 0.0	 0.0	 3	   0.000000	   7.041181	   0.000000; % PEL
	2	 0.0	 0.0	 3	   0.000000	   0.806854	   0.000000; % COW
	2	 0.0	 0.0	 3	   0.000000	   6.896195	   0.000000; % PEL
	2	 0.0	 0.0	 3	   0.000000	   0.927872	   0.000000; % NG
	2	 0.0	 0.0	 3	   0.000000	   0.892575	   0.000000; % NG
	2	 0.0	 0.0	 3	   0.000000	   1.455099	   0.000000; % NG
	2	 0.0	 0.0	 3	   0.000000	   7.553626	   0.000000; % PEL
	2	 0.0	 0.0	 3	   0.000000	   1.045596	   0.000000; % COW
	2	 0.0	 0.0	 3	   0.000000	   1.053862	   0.000000; % COW
	2	 0.0	 0.0	 3	   0.000000	   0.882767	   0.000000; % NG
	2	 0.0	 0.0	 3	   0.000000	   0.798271	   0.000000; % COW
	2	 0.0	 0.0	 3	   0.000000	   1.133241	   0.000000; % NG
	2	 0.0	 0.0	 3	   0.000000	   6.968820	   0.000000; % PEL
	2	 0.0	 0.0	 3	   0.000000	   6.551336	   0.000000; % PEL
	2	 0.0	 0.0	 3	   0.000000	   6.601040	   0.000000; % PEL
	2	 0.0	 0.0	 3	   0.000000	   1.435932	   0.000000; % NG
	2	 0.0	 0.0	 3	   0.000000	   0.701073	   0.000000; % NG
	2	 0.0	 0.0	 3	   0.000000	   1.277453	   0.000000; % NG
	2	 0.0	 0.0	 3	   0.000000	   1.238469	   0.000000; % NG
	2	 0.0	 0.0	 3	   0.000000	   0.752379	   0.000000; % NG
	2	 0.0	 0.0	 3	   0.000000	   6.923965	   0.000000; % PEL
	2	 0.0	 0.0	 3	   0.000000	   1.185924	   0.000000; % NG
	2	 0.0	 0.0	 3	   0.000000	   6.811213	   0.000000; % PEL
	2	 0.0	 0.0	 3	   0.000000	   0.618845	   0.000000; % NG
	2	 0.0	 0.0	 3	   0.000000	   1.377972	   0.000000; % NG
	2	 0.0	 0.0	 3	   0.000000	   1.161379	   0.000000; % NG
	2	 0.0	 0.0	 3	   0.000000	   1.218494	   0.000000; % NG
	2	 0.0	 0.0	 3	   0.000000	   1.213151	   0.000000; % NG
	2	 0.0	 0.0	 3	   0.000000	   6.738816	   0.000000; % PEL
	2	 0.0	 0.0	 3	   0.000000	   6.656976	   0.000000; % PEL
	2	 0.0	 0.0	 3	   0.000000	   7.052401	   0.000000; % PEL
	2	 0.0	 0.0	 3	   0.000000	   7.025136	   0.000000; % PEL
	2	 0.0	 0.0	 3	   0.000000	   1.205063	   0.000000; % NG
	2	 0.0	 0.0	 3	   0.000000	   1.118787	   0.000000; % NG
	2	 0.0	 0.0	 3	   0.000000	   0.844605	   0.000000; % NG
	2	 0.0	 0.0	 3	   0.000000	   7.429027	   0.000000; % PEL
	2	 0.0	 0.0	 3	   0.000000	   6.795881	   0.000000; % PEL
	2	 0.0	 0.0	 3	   0.000000	   0.937127	   0.000000; % NG
	2	 0.0	 0.0	 3	   0.000000	   1.138066	   0.000000; % NG
	2	 0.0	 0.0	 3	   0.000000	   1.151322	   0.000000; % NG
	2	 0.0	 0.0	 3	   0.000000	   0.765705	   0.000000; % NG
	2	 0.0	 0.0	 3	   0.000000	   1.193201	   0.000000; % NG
	2	 0.0	 0.0	 3	   0.000000	   6.928311	   0.000000; % PEL
	2	 0.0	 0.0	 3	   0.000000	   7.097849	   0.000000; % PEL
	2	 0.0	 0.0	 3	   0.000000	   0.923442	   0.000000; % NG
	2	 0.0	 0.0	 3	   0.000000	   1.210299	   0.000000; % NG
	2	 0.0	 0.0	 3	   0.000000	   1.073938	   0.000000; % NG
	2	 0.0	 0.0	 3	   0.000000	   0.671174	   0.000000; % NG
	2	 0.0	 0.0	 3	   0.000000	   7.085971	   0.000000; % PEL
	2	 0.0	 0.0	 3	   0.000000	   0.434828	   0.000000; % COW
	2	 0.0	 0.0	 3	   0.000000	   1.264890	   0.000000; % NG
	2	 0.0	 0.0	 3	   0.000000	   1.149412	   0.000000; % NG
	2	 0.0	 0.0	 3	   0.000000	   0.833195	   0.000000; % NG
	2	 0.0	 0.0	 3	   0.000000	   1.260286	   0.000000; % NG
	2	 0.0	 0.0	 3	   0.000000	   1.096743	   0.000000; % NG
	2	 0.0	 0.0	 3	   0.000000	   0.692509	   0.000000; % NG
	2	 0.0	 0.0	 3	   0.000000	   1.332032	   0.000000; % NG
	2	 0.0	 0.0	 3	   0.000000	   7.065910	   0.000000; % PEL
	2	 0.0	 0.0	 3	   0.000000	   6.782015	   0.000000; % PEL
	2	 0.0	 0.0	 3	   0.000000	   1.393003	   0.000000; % NG
	2	 0.0	 0.0	 3	   0.000000	   1.250672	   0.000000; % NG
	2	 0.0	 0.0	 3	   0.000000	   1.027508	   0.000000; % NG
	2	 0.0	 0.0	 3	   0.000000	   0.631275	   0.000000; % NG
	2	 0.0	 0.0	 3	   0.000000	   0.968007	   0.000000; % COW
	2	 0.0	 0.0	 3	   0.000000	   7.303276	   0.000000; % PEL
	2	 0.0	 0.0	 3	   0.000000	   0.724124	   0.000000; % NG
	2	 0.0	 0.0	 3	   0.000000	   1.386867	   0.000000; % NG
	2	 0.0	 0.0	 3	   0.000000	   6.752011	   0.000000; % PEL
	2	 0.0	 0.0	 3	   0.000000	   6.339795	   0.000000; % PEL
	2	 0.0	 0.0	 3	   0.000000	   0.835669	   0.000000; % NG
	2	 0.0	 0.0	 3	   0.000000	   1.097292	   0.000000; % NG
	2	 0.0	 0.0	 3	   0.000000	   0.742296	   0.000000; % NG
	2	 0.0	 0.0	 3	   0.000000	   1.062752	   0.000000; % NG
	2	 0.0	 0.0	 3	   0.000000	   0.596807	   0.000000; % COW
...
];

%% branch data
%	fbus	tbus	r	x	b	rateA	rateB	rateC	ratio	angle	status	angmin	angmax
mpc.branch = [
	11	 42404	 0.0036	 0.00391	 0.00207	 100.0	 100.0	 110.0	 0.0	 0.0	 1	 -30.0	 30.0;
	12	 25404	 0.00534	 0.00795	 0.00407	 3605	 3605	 3605	 0.0	 0.0	 1	 -30.0	 30.0;
	12	 25404	 0.00594	 0.00866	 0.00435	 3288	 3288	 3288	 0.0	 0.0	 1	 -30.0	 30.0;
	12	 46504	 0.02132	 0.02114	 0.00329	 1150	 1150	 1150	 0.0	 0.0	 1	 -30.0	 30.0;
	12	 46504	 0.01937	 0.01703	 0.00256	 1339	 1339	 1339	 0.0	 0.0	 1	 -30.0	 30.0;
	1021	 2121	 0.0286	 0.067	 0.0059	 128.0	 128.0	 140.8	 0.0	 0.0	 1	 -30.0	 30.0;
	1021	 2361	 0.0513	 0.1172	 0.0106	 128.0	 128.0	 140.8	 0.0	 0.0	 1	 -30.0	 30.0;
	1021	 3541	 0.0071	 0.037	 0.0116	 125.0	 125.0	 137.5	 0.0	 0.0	 1	 -30.0	 30.0;
	1021	 10210	 0.0	 0.0001	 0.0	 999.0	 999.0	 1098.9	 0.0	 0.0	 1	 -30.0	 30.0;
	1021	 10261	 0.0	 0.0001	 0.0	 128.0	 128.0	 140.8	 0.0	 0.0	 1	 -30.0	 30.0;
	1041	 5481	 0.0049	 0.0107	 0.001	 128.0	 128.0	 140.8	 0.0	 0.0	 1	 -30.0	 30.0;
	1042	 1052	 0.0	 0.0001	 0.0	 9999.0	 9999.0	 10998.9	 0.0	 0.0	 0	 -30.0	 30.0;
	1042	 1062	 0.0	 0.0001	 0.0	 593.0	 593.0	 652.3	 0.0	 0.0	 1	 -30.0	 30.0;
	1042	 1072	 0.0001	 0.0006	 0.0384	 593.0	 593.0	 652.3	 0.0	 0.0	 1	 -30.0	 30.0;
	1042	 3202	 0.003	 0.0222	 0.0335	 534.0	 534.0	 587.4	 0.0	 0.0	 1	 -30.0	 30.0;
	1042	 4722	 0.0012	 0.0078	 0.2591	 534.0	 534.0	 587.4	 0.0	 0.0	 1	 -30.0	 30.0;
	1042	 35771	 0.0001	 0.0004	 0.0265	 593.0	 593.0	 652.3	 0.0	 0.0	 1	 -30.0	 30.0;
	1052	 1062	 0.0	 0.0001	 0.0	 999.0	 999.0	 1098.9	 0.0	 0.0	 0	 -30.0	 30.0;
	1052	 2852	 0.0002	 0.0015	 0.1035	 593.0	 593.0	 652.3	 0.0	 0.0	 1	 -30.0	 30.0;
	1052	 3202	 0.003	 0.0222	 0.0335	 534.0	 534.0	 587.4	 0.0	 0.0	 1	 -30.0	 30.0;
	1061	 10619	 0.0004	 0.0008	 0.0001	 128.0	 128.0	 140.8	 0.0	 0.0	 1	 -30.0	 30.0;
	1062	 1072	 0.0	 0.0001	 0.0	 999.0	 999.0	 1098.9	 0.0	 0.0	 0	 -30.0	 30.0;
	1071	 2231	 0.0125	 0.0276	 0.0026	 128.0	 128.0	 140.8	 0.0	 0.0	 1	 -30.0	 30.0;
	1071	 2361	 0.0594	 0.1314	 0.0123	 128.0	 128.0	 140.8	 0.0	 0.0	 1	 -30.0	 30.0;
	1071	 4941	 0.0718	 0.1589	 0.0148	 128.0	 128.0	 140.8	 0.0	 0.0	 1	 -30.0	 30.0;
	1081	 32810	 0.0039	 0.0123	 0.0035	 68.0	 112.0	 123.2	 0.0	 0.0	 1	 -30.0	 30.0;
	1101	 2161	 0.0031	 0.0069	 0.0006	 45.0	 128.0	 140.8	 0.0	 0.0	 1	 -30.0	 30.0;
	1121	 1301	 0.0102	 0.0787	 0.0071	 166.0	 166.0	 182.6	 0.0	 0.0	 1	 -30.0	 30.0;
	1121	 1541	 0.0207	 0.0952	 0.0102	 137.0	 219.0	 240.9	 0.0	 0.0	 1	 -30.0	 30.0;
	1121	 4901	 0.0035	 0.0077	 0.0008	 57.0	 57.0	 62.7	 0.0	 0.0	 1	 -30.0	 30.0;
	1122	 1742	 0.0062	 0.0462	 0.0697	 534.0	 534.0	 587.4	 0.0	 0.0	 1	 -30.0	 30.0;
	1122	 3642	 0.0046	 0.0338	 0.051	 435.0	 534.0	 587.4	 0.0	 0.0	 1	 -30.0	 30.0;
	1131	 1151	 0.0	 0.0001	 0.0	 219.0	 219.0	 240.9	 0.0	 0.0	 1	 -30.0	 30.0;
	1131	 2131	 0.005	 0.0105	 0.0703	 140.0	 140.0	 154.0	 0.0	 0.0	 1	 -30.0	 30.0;
	1131	 5261	 0.007	 0.0358	 0.0039	 219.0	 219.0	 240.9	 0.0	 0.0	 1	 -30.0	 30.0;
	1141	 1911	 0.0016	 0.0034	 0.0226	 140.0	 140.0	 154.0	 0.0	 0.0	 1	 -30.0	 30.0;
	1141	 3501	 0.054	 0.123	 0.0116	 128.0	 128.0	 140.8	 0.0	 0.0	 1	 -30.0	 30.0;
	1141	 4941	 0.0135	 0.0696	 0.0113	 137.0	 219.0	 240.9	 0.0	 0.0	 1	 -30.0	 30.0;
	1141	 11461	 0.0	 0.0001	 0.0	 128.0	 128.0	 140.8	 0.0	 0.0	 1	 -30.0	 30.0;
	1161	 1781	 0.001	 0.002	 0.0011	 96.0	 96.0	 105.6	 0.0	 0.0	 1	 -30.0	 30.0;
	1161	 3901	 0.0173	 0.0894	 0.0097	 219.0	 219.0	 240.9	 0.0	 0.0	 1	 -30.0	 30.0;
	1161	 5051	 0.0006	 0.0012	 0.0061	 131.0	 131.0	 144.1	 0.0	 0.0	 1	 -30.0	 30.0;
	1161	 5071	 0.0006	 0.0012	 0.0061	 131.0	 131.0	 144.1	 0.0	 0.0	 1	 -30.0	 30.0;
	1161	 17810	 0.001	 0.0021	 0.0012	 96.0	 96.0	 105.6	 0.0	 0.0	 1	 -30.0	 30.0;
	1161	 51410	 0.0214	 0.1105	 0.012	 219.0	 219.0	 240.9	 0.0	 0.0	 1	 -30.0	 30.0;
	1181	 1861	 0.0644	 0.1424	 0.0133	 128.0	 128.0	 140.8	 0.0	 0.0	 1	 -30.0	 30.0;
	1181	 2821	 0.0193	 0.0994	 0.0108	 219.0	 219.0	 240.9	 0.0	 0.0	 1	 -30.0	 30.0;
	1181	 4221	 0.0381	 0.1969	 0.0214	 128.0	 128.0	 140.8	 0.0	 0.0	 1	 -30.0	 30.0;
	1181	 4961	 0.0292	 0.0645	 0.006	 110.0	 110.0	 121.0	 0.0	 0.0	 1	 -30.0	 30.0;
	1181	 4961	 0.0148	 0.0763	 0.0097	 219.0	 219.0	 240.9	 0.0	 0.0	 1	 -30.0	 30.0;
	1201	 2561	 0.0047	 0.0101	 0.0548	 131.0	 131.0	 144.1	 0.0	 0.0	 1	 -30.0	 30.0;
	1201	 3781	 0.0026	 0.0055	 0.0298	 131.0	 131.0	 144.1	 0.0	 0.0	 1	 -30.0	 30.0;
	1221	 1901	 0.0389	 0.086	 0.008	 128.0	 128.0	 140.8	 0.0	 0.0	 1	 -30.0	 30.0;
	1221	 4481	 0.0414	 0.0915	 0.0086	 128.0	 128.0	 140.8	 0.0	 0.0	 1	 -30.0	 30.0;
...